*SOILS: Inner Mongolia,China

*CAIM1501    SE          SICL     160  Silty clay Loam <modi calc> - Inner Mongolia,Chi
@SITE        COUNTRY          LAT     LONG SCS FAMILY
 NM          China           42.95  119.07 -99
@ SCOM  SALB  SLU1  SLDR  SLRO  SLNF  SLPF  SMHB  SMPX  SMKE
     R   .13     9   .10    61     1     1  B001  A001  B001
@  SLB  SLMH  SLLL  SDUL  SSAT  SRGF  SSKS  SBDM  SLOC  SLCL  SLSI  SLCF  SLNI  SLHW  SLHB  SCEC  SADC
    20   -99  .183  .279  .356     1  1.59  1.41  1.51  27.8  35.4   -99   -99   8.5   -99   -99   -99
    40   -99  .225  .348  .473  .449   .53  1.47  1.29  44.5  41.1   -99   -99   8.5   -99   -99   -99    
    60   -99  .206  .332  .454  .268   .68  1.53  1.07  18.1  62.5   -99   -99   8.5   -99   -99   -99
    80   -99  .181  .325  .434  .147   .68  1.52  0.34  21.7  70.5   -99   -99   8.5   -99   -99   -99
   100   -99  .181  .325  .434  .105   .68  1.52   .22  22.8  68.1   -99   -99   8.5   -99   -99   -99
   120   -99  .181  .325  .434  .101   .09  1.52   .11  22.8  68.1   -99   -99   8.5   -99   -99   -99
   140   -99  .181  .325  .434  .014   .09  1.52   .10  22.8  68.1   -99   -99   8.5   -99   -99   -99
   160   -99  .181  .325  .434  .014   .09  1.52   .10  22.8  68.1   -99   -99   8.5   -99   -99   -99

*CAIM1502    SE            SL     160  Silty Loam <modi calc> - Inner Mongolia,Chi
@SITE        COUNTRY          LAT     LONG SCS FAMILY
 NM          China           42.95  119.07 -99
@ SCOM  SALB  SLU1  SLDR  SLRO  SLNF  SLPF  SMHB  SMPX  SMKE
     R   .13     9   .10    61     1     1  B001  A001  B001
@  SLB  SLMH  SLLL  SDUL  SSAT  SRGF  SSKS  SBDM  SLOC  SLCL  SLSI  SLCF  SLNI  SLHW  SLHB  SCEC  SADC
    20   -99  .183  .279  .356     1  1.59  1.47   .41  27.8  35.4   -99   -99   8.5   -99   -99   -99
    40   -99  .225  .348  .473  .449   .53  1.51   .39  44.5  41.1   -99   -99   8.5   -99   -99   -99
    60   -99  .206  .332  .454  .268   .68  1.53   .32  38.1  42.5   -99   -99   8.5   -99   -99   -99
    80   -99  .181  .325  .434  .147   .68  1.52   .14  21.7  70.5   -99   -99   8.5   -99   -99   -99
   100   -99  .181  .325  .434  .105   .68  1.52   .12  22.8  68.1   -99   -99   8.5   -99   -99   -99
   120   -99  .181  .325  .434  .101   .09  1.52   .11  22.8  68.1   -99   -99   8.5   -99   -99   -99
   140   -99  .181  .325  .434  .014   .09  1.52    .1  22.8  68.1   -99   -99   8.5   -99   -99   -99
   160   -99  .181  .325  .434  .014   .09  1.52    .1  22.8  68.1   -99   -99   8.5   -99   -99   -99

*CAIM1503    SE          SL       160  Silty Loam <modi calc> - Inner Mongolia,Chi
@SITE        COUNTRY          LAT     LONG SCS FAMILY
 NM          China           42.95  119.07 -99
@ SCOM  SALB  SLU1  SLDR  SLRO  SLNF  SLPF  SMHB  SMPX  SMKE
     R   .13     9   .10    61  0.95     1  B001  A001  B001
@  SLB  SLMH  SLLL  SDUL  SSAT  SRGF  SSKS  SBDM  SLOC  SLCL  SLSI  SLCF  SLNI  SLHW  SLHB  SCEC  SADC
    20   -99  .183  .279  .356     1  1.59  1.41  1.71  27.8  35.4   -99   -99   8.5   -99   -99   -99
    40   -99  .225  .348  .473  .449   .53  1.47  1.49  44.5  41.1   -99   -99   8.5   -99   -99   -99
    60   -99  .206  .332  .454  .268   .68  1.53  1.27  18.1  62.5   -99   -99   8.5   -99   -99   -99
    80   -99  .181  .325  .434  .147   .68  1.52   .84  21.7  70.5   -99   -99   8.5   -99   -99   -99
   100   -99  .181  .325  .434  .105   .68  1.52   .42  22.8  68.1   -99   -99   8.5   -99   -99   -99
   120   -99  .181  .325  .434  .101   .09  1.52   .11  22.8  68.1   -99   -99   8.5   -99   -99   -99
   140   -99  .181  .325  .434  .014   .09  1.52    .1  22.8  68.1   -99   -99   8.5   -99   -99   -99
   160   -99  .181  .325  .434  .014   .09  1.52    .1  22.8  68.1   -99   -99   8.5   -99   -99   -99