*SOILS: Florida Muck Soils

!  Soils defined by data from USGS/ USDA/SCS 1976 Soil Survey of Palm Beach County 1976
!  There is no Muck texture description in DSSAT soils modules.  The designations LS and S were used simply to make the model run.

*UFBG760001  USGS        LS      105 Okeelanta Muck
@SITE        COUNTRY          LAT     LONG SCS FAMILY
 EREC        USA           26.600   80.600 Euic, Typic, Hydric Medisaprist
@ SCOM  SALB  SLU1  SLDR  SLRO  SLNF  SLPF  SMHB  SMPX  SMKE
    BL  0.09   6.0  0.40  61.0  1.00  1.00 IB001 IB001 IB001
@  SLB  SLMH  SLLL  SDUL  SSAT  SRGF  SSKS  SBDM  SLOC  SLCL  SLSI  SLCF  SLNI  SLHW  SLHB  SCEC  SADC
   100     A 0.200 0.500 0.800 1.000  5.00  0.35 58.00   5.0  10.0   0.0   -99   6.0   -99   -99   -99 
   105     C 0.026 0.058 0.402 0.129  0.10  1.53  0.01   0.0   0.0   0.0   -99   8.4   -99   -99   -99 
@  SLB  SLPX  SLPT  SLPO CACO3  SLAL  SLFE  SLMN  SLBS  SLPA  SLPB  SLKE  SLMG  SLNA  SLSU  SLEC  SLCA
   100  96.0 210.0 187.0  0.00  2.30  2.30   -99   0.1   -99   -99  0.10  0.10  0.00 13.30   -99   -99 
   105  56.0 183.0 155.0  0.00  2.00  2.30   -99   -99   -99   -99  0.00  0.10  0.00 15.30   -99   -99 

*UFBG760002  SCS         S        71 Lauderhill Muck
@SITE        COUNTRY          LAT     LONG SCS FAMILY
 EREC        USA           26.400   80.400 euic, hyperthermic Lithic Haplosaprist
@ SCOM  SALB  SLU1  SLDR  SLRO  SLNF  SLPF  SMHB  SMPX  SMKE
    BL  0.09   6.0  0.25  61.0  1.00  1.00 IB001 SA001 IB001
@  SLB  SLMH  SLLL  SDUL  SSAT  SRGF  SSKS  SBDM  SLOC  SLCL  SLSI  SLCF  SLNI  SLHW  SLHB  SCEC  SADC
    20   Oap 0.150 0.250 0.500 1.000 21.00  0.35 45.00   5.0   5.0   0.0 3.500   6.2   -99 211.0   -99 
    45   Oa2 0.150 0.250 0.500 0.522 21.00  0.35 46.00   5.0   5.0   0.0 3.500   6.3   -99 210.0   -99 
    60   Oa3 0.150 0.250 0.500 0.330 21.00  0.35 40.00   5.0   5.0   0.0 3.500   6.6   -99 141.0   -99 
    71   -99 0.026 0.058 0.402 0.010  0.01  1.53  0.07   0.0   0.0  80.0   -99   8.4   -99   -99   -99 
@  SLB  SLPX  SLPT  SLPO CACO3  SLAL  SLFE  SLMN  SLBS  SLPA  SLPB  SLKE  SLMG  SLNA  SLSU  SLEC  SLCA
    20  96.0 210.0 187.0  0.27  2.30  2.30   -99   0.1   -99   -99  0.08  0.13  0.00 13.30   -99  0.27 
    45  56.0 183.0 155.0  0.12  2.01  2.30   -99   -99   -99   -99  0.03  0.05  0.00 15.30   -99  0.12 
    60  40.0 150.3 100.0  0.11  1.25  2.30   -99   -99   -99   -99  0.03  0.04  0.00 14.10   -99  0.11 
    71   0.1   0.1   0.1  0.09  0.09  0.90  0.09   0.1  0.09  0.09  0.09  0.09  0.00 90.09  0.09  0.10 

*UFHA000001  Lincoln Zot S       -99 -99
@SITE        COUNTRY          LAT     LONG SCS FAMILY
 -99         -99               -99     -99 -99
@ SCOM  SALB  SLU1  SLDR  SLRO  SLNF  SLPF  SMHB  SMPX  SMKE
   -99  0.13   -99   0.5    73     1  0.95   -99   -99   -99
@  SLB  SLMH  SLLL  SDUL  SSAT  SRGF  SSKS  SBDM  SLOC  SLCL  SLSI  SLCF  SLNI  SLHW  SLHB  SCEC  SADC
     5   -99  0.03  0.12  0.42     1   8.9  1.36   0.5     5     2    93   -99   -99   -99   -99   -99
    10   -99  0.03  0.12  0.42     1   8.9  1.36   0.5     5     2    93   -99   -99   -99   -99   -99
    20   -99  0.03  0.14  0.42     1  11.5  1.42   0.5     5     2    93   -99   -99   -99   -99   -99
    40   -99  0.03  0.16  0.41  0.58  14.8  1.49   0.5     5     2    93   -99   -99   -99   -99   -99
    50   -99  0.03  0.16  0.41  0.58  14.9  1.49   0.5     5     2    93   -99   -99   -99   -99   -99
    60   -99  0.03  0.20   0.4  0.35  33.2  1.53   0.6     5     2    93   -99   -99   -99   -99   -99
    80   -99  0.03   0.2   0.4  0.19  33.2  1.53   0.6     5     2    93   -99   -99   -99   -99   -99

*UFCT000001  Lincoln Zot S       -99 -99
@SITE        COUNTRY          LAT     LONG SCS FAMILY
 -99         -99               -99     -99 -99
@ SCOM  SALB  SLU1  SLDR  SLRO  SLNF  SLPF  SMHB  SMPX  SMKE
   -99  0.17   -99  0.65    64   -99  0.87   -99   -99   -99
@  SLB  SLMH  SLLL  SDUL  SSAT  SRGF  SSKS  SBDM  SLOC  SLCL  SLSI  SLCF  SLNI  SLHW  SLHB  SCEC  SADC
    10   -99  0.03  0.11  0.36     1  51.1  1.53   0.8   1.2   1.3   0.0   -99   -99   -99   -99   -99
    20   -99  0.03  0.11  0.36     1  51.1  1.53   0.8   1.2   1.3   0.0   -99   -99   -99   -99   -99
    30   -99  0.03  0.11  0.36     1  51.1  1.53   0.8   1.2   1.3   0.0   -99   -99   -99   -99   -99
    37   -99  0.03  0.11  0.36   0.9  51.1  1.53   0.3   1.2   1.8   0.0   -99   -99   -99   -99   -99
    45   -99  0.03  0.11   0.4   0.8  51.1  1.53   0.3     2   1.8   0.0   -99   -99   -99   -99   -99
    52   -99  0.03  0.12   0.4   0.7  51.1  1.53   0.3     2   1.8   0.0   -99   -99   -99   -99   -99
    60   -99  0.03  0.13  0.43 0.581  51.1  1.53   0.3     2   1.8   0.0   -99   -99   -99   -99   -99
    70   -99  0.03  0.13  0.46   0.5  51.1  1.53   0.3     3   1.8   0.0   -99   -99   -99   -99   -99
    80   -99  0.03  0.14  0.49   0.4  51.1  1.53   0.3     3   1.8   0.0   -99   -99   -99   -99   -99
    90   -99  0.03  0.15  0.52 0.303  51.1  1.53   0.3     3   1.8   0.0   -99   -99   -99   -99   -99
    
*UFCT000002  Lincoln Zot S       -99 -99
@SITE        COUNTRY          LAT     LONG SCS FAMILY
 -99         -99               -99     -99 -99
@ SCOM  SALB  SLU1  SLDR  SLRO  SLNF  SLPF  SMHB  SMPX  SMKE
   -99  0.17   -99  0.65    64   -99  0.87   -99   -99   -99
@  SLB  SLMH  SLLL  SDUL  SSAT  SRGF  SSKS  SBDM  SLOC  SLCL  SLSI  SLCF  SLNI  SLHW  SLHB  SCEC  SADC
    10   -99  0.01  0.10  0.36     1  51.1  1.53   0.8   1.2   1.3    97   -99   -99   -99   -99   -99
    20   -99  0.01  0.10  0.36     1  51.1  1.53   0.8   1.2   1.3    97   -99   -99   -99   -99   -99
    30   -99  0.01  0.11  0.36   0.9  51.1  1.53   0.8   1.2   1.3    97   -99   -99   -99   -99   -99
    37   -99  0.01  0.11  0.36   0.8  51.1  1.53   0.3   1.2   1.8  95.2   -99   -99   -99   -99   -99
    45   -99  0.01  0.11   0.4   0.7  51.1  1.53   0.3     2   1.8  95.2   -99   -99   -99   -99   -99
    52   -99  0.01  0.12   0.4   0.3  51.1  1.53   0.3     2   1.8  95.2   -99   -99   -99   -99   -99
    60   -99  0.01  0.13  0.43   0.2  51.1  1.53   0.3     2   1.8  95.2   -99   -99   -99   -99   -99
    70   -99  0.01  0.13  0.46   0.1  51.1  1.53   0.3     3   1.8  94.2   -99   -99   -99   -99   -99
    80   -99  0.01  0.14  0.49   0.1  51.1  1.53   0.3     3   1.8  94.2   -99   -99   -99   -99   -99
    90   -99  0.01  0.15  0.52   0.1  51.1  1.53   0.3     3   1.8  94.2   -99   -99   -99   -99   -99

*UFCT000003  Lincoln Zot S       -99 -99
@SITE        COUNTRY          LAT     LONG SCS FAMILY
 -99         -99               -99     -99 -99
@ SCOM  SALB  SLU1  SLDR  SLRO  SLNF  SLPF  SMHB  SMPX  SMKE
   -99  0.17   -99  0.65    64   -99  0.87   -99   -99   -99
@  SLB  SLMH  SLLL  SDUL  SSAT  SRGF  SSKS  SBDM  SLOC  SLCL  SLSI  SLCF  SLNI  SLHW  SLHB  SCEC  SADC
    10   -99  0.02  0.11  0.36     1  15.8  1.53   0.8   1.2   1.3    97   -99   -99   -99   -99   -99
    20   -99  0.02  0.11  0.36     1  14.0  1.53   0.8   1.2   1.3    97   -99   -99   -99   -99   -99
    30   -99  0.02  0.11  0.36   0.9  13.2  1.53   0.8   1.2   1.3    97   -99   -99   -99   -99   -99
    37   -99  0.03  0.12  0.36   0.8  13.2  1.53   0.3   1.2   1.8  95.2   -99   -99   -99   -99   -99
    45   -99  0.03  0.12   0.4   0.7  13.2  1.53   0.3     2   1.8  95.2   -99   -99   -99   -99   -99
    52   -99  0.03  0.12   0.4   0.3  13.2  1.53   0.3     2   1.8  95.2   -99   -99   -99   -99   -99
    60   -99  0.03  0.13  0.43   0.2  13.2  1.53   0.3     2   1.8  95.2   -99   -99   -99   -99   -99
    70   -99  0.03  0.13  0.46   0.1  13.2  1.53   0.3     3   1.8  94.2   -99   -99   -99   -99   -99
    80   -99  0.03  0.14  0.49   0.1  13.2  1.53   0.3     3   1.8  94.2   -99   -99   -99   -99   -99
    90   -99  0.03  0.15  0.52   0.1  13.2  1.53   0.3     3   1.8  94.2   -99   -99   -99   -99   -99
    
*UFIMOK1501  -99            S      60  Immokalee
@SITE        COUNTRY          LAT     LONG SCS FAMILY
 IM          USA             26.45  81.433 Arenic, Alaquods, Sandy, Siliceous, Hyperthermic
@ SCOM  SALB  SLU1  SLDR  SLRO  SLNF  SLPF  SMHB  SMPX  SMKE
     G   .13     6   .05    61     1     1 IB001 IB001 IB001
@  SLB  SLMH  SLLL  SDUL  SSAT  SRGF  SSKS  SBDM  SLOC  SLCL  SLSI  SLCF  SLNI  SLHW  SLHB  SCEC  SADC
    15    Ap  .013   .09   .34     1 15.82  1.62   .61    .8   1.2   -99   -99   5.6   -99   7.6   -99
    30    E1  .013    .1   .36  .638 13.97  1.62   .41    .1   2.7   -99   -99   5.2   -99    .7   -99
    45    E2  .013    .1   .39  .304 13.22  1.59   .49   2.5   2.5   -99   -99   5.8   -99    .3   -99
    60   Bh1  .013   .15   .42  .138 14.57  1.61   .27   1.4   7.1   -99   -99   5.9   -99   6.8   -99