*EXP.DETAILS: UFIM1503TM TOMATO CALIBRATION IMMOKALEE

*GENERAL
@PEOPLE
Ibukun "Timothy" Ayankojo PhD. Project
@ADDRESS
-99
@SITE
-99

*TREATMENTS                        -------------FACTOR LEVELS------------
@N R O C TNAME.................... CU FL SA IC MP MI MF MR MC MT ME MH SM
 1 1 1 0 Cal-16                     1  1  1  1  1  1  1  0  0  0  1  0  1
 2 1 1 0 16F3-I1                    1  1  1  1  1  1  3  0  0  0  1  0  1
 3 1 1 0 Cal-17                     1  1  2  2  2  3  5  0  0  0  2  0  2
 4 1 1 0 17F3-I1                    1  1  2  2  2  3  7  0  0  0  2  0  2

*CULTIVARS
@C CR INGENO CNAME
 1 TM TM0008 Charger IMOK 18

*FIELDS
@L ID_FIELD WSTA....  FLSA  FLOB  FLDT  FLDD  FLDS  FLST SLTX  SLDP  ID_SOIL    FLNAME
 1 UFIM0003 IFIM       -99   -99   -99   -99   -99   -99 S      -99  UFIMOK1501 -99
@L ...........XCRD ...........YCRD .....ELEV .............AREA .SLEN .FLWR .SLAS FLHST FHDUR
 1             -99             -99       -99               -99   -99   -99   -99   -99   -99

*SOIL ANALYSIS
@A SADAT  SMHB  SMPX  SMKE  SANAME
 1 16251 SA012 SA007 SA013  2016
@A  SABL  SADM  SAOC  SANI SAPHW SAPHB  SAPX  SAKE  SASC
 1    15   1.6   .61   -99   5.6   -99 109.8   -99   -99
 1    30   1.6   .41   -99   5.2   -99 102.7   -99   -99
 1    45   1.6   .49   -99   5.8   -99    80   -99   -99
 1    60   1.6   .27   -99   5.9   -99    80   -99   -99
@A SADAT  SMHB  SMPX  SMKE  SANAME
 2 17037 SA012 SA007 SA013  2017
@A  SABL  SADM  SAOC  SANI SAPHW SAPHB  SAPX  SAKE  SASC
 2    15   1.6   .61   -99   5.6   -99 109.5   -99   -99
 2    30   1.6   .41   -99   5.2   -99  99.3   -99   -99
 2    45   1.6   .49   -99   5.8   -99    80   -99   -99
 2    60   1.6   .27   -99   5.9   -99    80   -99   -99
@A SADAT  SMHB  SMPX  SMKE  SANAME
 3 02037 SA012 SA007 SA013  Modified
@A  SABL  SADM  SAOC  SANI SAPHW SAPHB  SAPX  SAKE  SASC
 3    15   1.6   .61   -99   5.6   -99 109.5   -99   -99
 3    30   1.6   .41   -99   5.2   -99  99.3   -99   -99
 3    45   1.6   .49   -99   5.8   -99    80   -99   -99
 3    60   1.6   .27   -99   5.9   -99    80   -99   -99

*INITIAL CONDITIONS
@C   PCR ICDAT  ICRT  ICND  ICRN  ICRE  ICWD ICRES ICREN ICREP ICRIP ICRID ICNAME
 1    TM 16251   -99   -99     1     1   -99   -99   -99   -99   -99   -99 2016
@C  ICBL  SH2O  SNH4  SNO3
 1    15    .1   3.2   2.8
 1    30    .1   2.5   3.1
@C   PCR ICDAT  ICRT  ICND  ICRN  ICRE  ICWD ICRES ICREN ICREP ICRIP ICRID ICNAME
 2    TM 17037   -99   -99     1     1   -99   -99   -99   -99   -99   -99 2017
@C  ICBL  SH2O  SNH4  SNO3
 2    15    .1   2.9   2.6
 2    30    .1   2.2   2.1
@C   PCR ICDAT  ICRT  ICND  ICRN  ICRE  ICWD ICRES ICREN ICREP ICRIP ICRID ICNAME
 3    TM 02037   -99   -99     1     1   -99   -99   -99   -99   -99   -99 Modified
@C  ICBL  SH2O  SNH4  SNO3
 3    15    .1   2.9   2.6
 3    30    .1   2.2   2.1

*PLANTING DETAILS
@P PDATE EDATE  PPOP  PPOE  PLME  PLDS  PLRS  PLRD  PLDP  PLWT  PAGE  PENV  PLPH  SPRL                        PLNAME
 1 16252   -99   1.2   -99     T     R   183    90     1     3    28    25     1   -99                        2016
 2 17038   -99   1.2   -99     T     R   183    90     1     3    28    25     1   -99                        2017

*IRRIGATION AND WATER MANAGEMENT
@I  EFIR  IDEP  ITHR  IEPT  IOFF  IAME  IAMT IRNAME
 1   .95    30    50   100 GS000 IR001    10 16 100%
@I IDATE  IROP IRVAL
 1 16252 IR005   4.5
 1 16253 IR005   4.5
 1 16254 IR005   4.5
 1 16255 IR005   4.5
 1 16256 IR005   4.5
 1 16257 IR005   4.5
 1 16258 IR005   4.5
 1 16259 IR005   4.5
 1 16260 IR005   4.5
 1 16261 IR005   4.5
 1 16262 IR005   4.5
 1 16263 IR005   4.5
 1 16264 IR005   4.5
 1 16265 IR005     4
 1 16266 IR005     4
 1 16267 IR005     4
 1 16268 IR005     4
 1 16269 IR005     4
 1 16270 IR005     4
 1 16271 IR005     4
 1 16272 IR005   2.8
 1 16273 IR005   2.8
 1 16274 IR005   2.8
 1 16275 IR005   2.8
 1 16276 IR005   2.8
 1 16277 IR005   2.8
 1 16278 IR005   2.8
 1 16279 IR005   3.8
 1 16280 IR005   3.8
 1 16281 IR005   3.8
 1 16282 IR005   3.8
 1 16283 IR005   3.8
 1 16284 IR005   3.8
 1 16285 IR005   3.8
 1 16286 IR005   3.8
 1 16287 IR005   3.8
 1 16288 IR005   3.8
 1 16289 IR005   3.8
 1 16290 IR005   3.8
 1 16291 IR005   3.8
 1 16292 IR005   3.8
 1 16293 IR005   3.8
 1 16294 IR005   3.8
 1 16295 IR005   3.8
 1 16296 IR005   3.8
 1 16297 IR005   3.8
 1 16298 IR005   3.8
 1 16299 IR005   3.8
 1 16300 IR005   3.8
 1 16301 IR005   3.8
 1 16302 IR005   3.8
 1 16303 IR005   3.8
 1 16304 IR005   3.8
 1 16305 IR005   3.8
 1 16306 IR005   3.8
 1 16307 IR005   5.4
 1 16308 IR005   5.4
 1 16309 IR005   5.4
 1 16310 IR005   5.4
 1 16311 IR005   5.4
 1 16312 IR005   5.4
 1 16313 IR005   5.4
 1 16314 IR005   5.4
 1 16315 IR005   5.4
 1 16316 IR005   6.4
 1 16317 IR005   6.4
 1 16318 IR005   6.4
 1 16319 IR005   6.4
 1 16320 IR005   6.4
 1 16321 IR005     6
 1 16322 IR005     6
 1 16323 IR005     6
 1 16324 IR005     6
 1 16325 IR005     6
 1 16326 IR005     6
 1 16327 IR005     6
 1 16328 IR005     6
 1 16329 IR005     6
 1 16330 IR005     6
 1 16331 IR005     6
 1 16332 IR005     6
 1 16333 IR005     6
 1 16334 IR005     6
 1 16335 IR005     6
 1 16336 IR005     6
 1 16337 IR005     6
 1 16338 IR005     6
 1 16339 IR005     6
 1 16340 IR005     6
 1 16341 IR005     6
 1 16342 IR005     6
 1 16343 IR005     6
 1 16344 IR005     6
 1 16345 IR005     6
 1 16346 IR005     6
 1 16347 IR005     6
 1 16348 IR005     6
 1 16349 IR005     6
 1 16350 IR005     6
 1 16351 IR005     6
 1 16352 IR005     6
 1 16353 IR005     6
 1 16354 IR005     6
@I  EFIR  IDEP  ITHR  IEPT  IOFF  IAME  IAMT IRNAME
 2   .95    30    50   100 GS000 IR001    10 16 66%
@I IDATE  IROP IRVAL
 2 16252 IR005   1.2
 2 16253 IR005   1.2
 2 16254 IR005   1.2
 2 16255 IR005   1.2
 2 16256 IR005   1.2
 2 16257 IR005   1.2
 2 16258 IR005   1.2
 2 16259 IR005   1.2
 2 16260 IR005   1.2
 2 16261 IR005   1.2
 2 16262 IR005   1.2
 2 16263 IR005   1.2
 2 16264 IR005   1.2
 2 16265 IR005   1.3
 2 16266 IR005   1.3
 2 16267 IR005   1.3
 2 16268 IR005   1.3
 2 16269 IR005   1.3
 2 16270 IR005   1.3
 2 16271 IR005   1.3
 2 16272 IR005    .9
 2 16273 IR005    .9
 2 16274 IR005    .9
 2 16275 IR005    .9
 2 16276 IR005    .9
 2 16277 IR005    .9
 2 16278 IR005    .9
 2 16279 IR005   1.9
 2 16280 IR005   1.9
 2 16281 IR005   1.9
 2 16282 IR005   1.9
 2 16283 IR005   1.9
 2 16284 IR005   1.9
 2 16285 IR005   1.9
 2 16286 IR005   1.9
 2 16287 IR005   1.9
 2 16288 IR005   1.9
 2 16289 IR005   1.9
 2 16290 IR005   1.9
 2 16291 IR005   1.9
 2 16292 IR005   1.9
 2 16293 IR005   1.9
 2 16294 IR005   1.9
 2 16295 IR005   1.9
 2 16296 IR005   1.9
 2 16297 IR005   1.9
 2 16298 IR005   1.9
 2 16299 IR005   1.9
 2 16300 IR005   1.9
 2 16301 IR005   1.9
 2 16302 IR005   1.9
 2 16303 IR005   1.9
 2 16304 IR005   1.9
 2 16305 IR005   1.9
 2 16306 IR005   1.9
 2 16307 IR005   1.8
 2 16308 IR005   1.8
 2 16309 IR005   1.8
 2 16310 IR005   1.8
 2 16311 IR005   1.8
 2 16312 IR005   1.8
 2 16313 IR005   1.8
 2 16314 IR005   2.1
 2 16315 IR005   2.1
 2 16316 IR005   2.1
 2 16317 IR005   2.1
 2 16318 IR005   2.1
 2 16319 IR005   2.1
 2 16320 IR005   2.1
 2 16321 IR005     2
 2 16322 IR005     2
 2 16324 IR005     2
 2 16325 IR005     2
 2 16326 IR005     2
 2 16327 IR005     2
 2 16328 IR005     2
 2 16329 IR005     2
 2 16330 IR005     2
 2 16331 IR005     2
 2 16332 IR005     2
 2 16333 IR005     2
 2 16334 IR005     2
 2 16335 IR005   1.9
 2 16336 IR005   1.9
 2 16337 IR005   1.9
 2 16338 IR005   1.9
 2 16339 IR005   1.9
 2 16340 IR005   1.9
 2 16341 IR005   1.9
 2 16342 IR005   1.9
 2 16343 IR005   1.9
 2 16344 IR005   1.9
 2 16345 IR005   1.9
 2 16346 IR005   1.9
 2 16347 IR005   1.9
 2 16348 IR005   1.9
 2 16349 IR005   1.9
 2 16350 IR005   1.9
 2 16351 IR005   1.9
 2 16352 IR005   1.9
 2 16353 IR005   1.9
 2 16354 IR005   1.9
 2 16355 IR005   1.9
@I  EFIR  IDEP  ITHR  IEPT  IOFF  IAME  IAMT IRNAME
 3   .95     3     5    10  GS00  IR00     1 17 100%
@I IDATE  IROP IRVAL
 3 17038 IR005   4.5
 3 17039 IR005   4.5
 3 17040 IR005   4.5
 3 17041 IR005   4.5
 3 17042 IR005   4.5
 3 17043 IR005   4.5
 3 17044 IR005   4.5
 3 17045 IR005   4.5
 3 17046 IR005   4.5
 3 17047 IR005   4.5
 3 17048 IR005   4.5
 3 17049 IR005   4.5
 3 17050 IR005   4.5
 3 17051 IR005   2.8
 3 17052 IR005   2.8
 3 17053 IR005   2.8
 3 17054 IR005   2.8
 3 17055 IR005   2.8
 3 17056 IR005   2.8
 3 17057 IR005   2.8
 3 17058 IR005   2.8
 3 17059 IR005   2.8
 3 17060 IR005   2.8
 3 17061 IR005   2.8
 3 17062 IR005   2.8
 3 17063 IR005   2.8
 3 17064 IR005     6
 3 17065 IR005     6
 3 17066 IR005     6
 3 17067 IR005     6
 3 17068 IR005     6
 3 17069 IR005     6
 3 17070 IR005     6
 3 17071 IR005     6
 3 17072 IR005   6.6
 3 17073 IR005   6.6
 3 17074 IR005   6.6
 3 17075 IR005   6.6
 3 17076 IR005   6.6
 3 17077 IR005   6.6
 3 17078 IR005   6.6
 3 17079 IR005   6.6
 3 17080 IR005   6.6
 3 17081 IR005   6.6
 3 17082 IR005   6.6
 3 17083 IR005   6.6
 3 17084 IR005   6.6
 3 17085 IR005   6.6
 3 17086 IR005   5.2
 3 17087 IR005   5.2
 3 17088 IR005   5.2
 3 17089 IR005   5.2
 3 17090 IR005   5.2
 3 17091 IR005   5.2
 3 17092 IR005   5.2
 3 17093 IR005     6
 3 17094 IR005     6
 3 17095 IR005     6
 3 17096 IR005     6
 3 17097 IR005     6
 3 17098 IR005     6
 3 17099 IR005     6
 3 17100 IR005     6
 3 17101 IR005     6
 3 17102 IR005     6
 3 17103 IR005     6
 3 17104 IR005     6
 3 17105 IR005     6
 3 17106 IR005     6
 3 17107 IR005   6.5
 3 17108 IR005   6.5
 3 17109 IR005   6.5
 3 17110 IR005   6.5
 3 17111 IR005   6.5
 3 17112 IR005   6.5
 3 17113 IR005   6.5
 3 17114 IR005   6.5
 3 17115 IR005   6.5
 3 17116 IR005   6.5
 3 17117 IR005   6.5
 3 17118 IR005   6.5
 3 17119 IR005   6.5
 3 17120 IR005   6.5
 3 17121 IR005   6.5
 3 17122 IR005   6.5
 3 17123 IR005   6.5
 3 17124 IR005   6.5
 3 17125 IR005   6.5
 3 17126 IR005   6.5
 3 17127 IR005   6.5
 3 17128 IR005   6.5
 3 17129 IR005   6.5
 3 17130 IR005   6.5
 3 17131 IR005   6.5
 3 17132 IR005   6.5
 3 17133 IR005   6.5
 3 17134 IR005   6.5
 3 17135 IR005   6.5
 3 17136 IR005   6.5
 3 17137 IR005   6.5
 3 17138 IR005   6.5
 3 18139 IR005   6.5
 3 18140 IR005   6.5
 3 18141 IR005   6.5
@I  EFIR  IDEP  ITHR  IEPT  IOFF  IAME  IAMT IRNAME
 4    .9     3     5    10  GS00  IR00     1 66%
@I IDATE  IROP IRVAL
 4 17038 IR005   1.6
 4 17039 IR005   1.6
 4 17040 IR005   1.6
 4 17041 IR005   1.6
 4 17042 IR005   1.6
 4 17043 IR005   1.6
 4 17044 IR005   1.6
 4 17045 IR005   1.6
 4 17046 IR005   1.6
 4 17047 IR005   1.6
 4 17048 IR005   1.6
 4 17049 IR005   1.6
 4 17050 IR005   1.6
 4 17051 IR005     1
 4 17052 IR005     1
 4 17053 IR005     1
 4 17054 IR005     1
 4 17055 IR005     1
 4 17056 IR005     1
 4 17057 IR005     1
 4 17058 IR005     1
 4 17059 IR005     1
 4 17060 IR005     1
 4 17061 IR005     1
 4 17062 IR005     1
 4 17063 IR005     1
 4 17064 IR005     1
 4 17065 IR005     2
 4 17066 IR005     2
 4 17067 IR005     2
 4 17068 IR005     2
 4 17069 IR005     2
 4 17070 IR005     2
 4 17071 IR005     2
 4 17072 IR005   2.2
 4 17073 IR005   2.2
 4 17074 IR005   2.2
 4 17075 IR005   2.2
 4 17076 IR005   2.2
 4 17077 IR005   2.2
 4 17078 IR005   2.2
 4 17079 IR005   3.4
 4 17080 IR005   3.4
 4 17081 IR005   3.4
 4 17082 IR005   3.4
 4 17083 IR005   3.4
 4 17084 IR005   3.4
 4 17085 IR005   3.4
 4 17086 IR005   3.1
 4 17087 IR005   3.1
 4 17088 IR005   3.1
 4 17089 IR005   3.1
 4 17090 IR005   3.1
 4 17091 IR005   3.1
 4 17092 IR005   3.1
 4 17093 IR005   3.6
 4 17094 IR005   3.6
 4 17095 IR005   3.6
 4 17096 IR005   3.6
 4 17097 IR005   3.6
 4 17098 IR005   3.6
 4 17099 IR005   3.6
 4 17100 IR005   3.3
 4 17101 IR005   3.3
 4 17102 IR005   3.3
 4 17103 IR005   3.3
 4 17104 IR005   3.3
 4 17105 IR005   3.3
 4 17106 IR005   3.3
 4 17107 IR005   3.4
 4 17108 IR005   3.4
 4 17109 IR005   3.4
 4 17110 IR005   3.4
 4 17111 IR005   3.4
 4 17112 IR005   3.4
 4 17113 IR005   3.4
 4 17114 IR005   3.4
 4 17115 IR005   3.4
 4 17116 IR005   3.4
 4 17117 IR005   3.4
 4 17118 IR005   3.4
 4 17119 IR005   3.4
 4 17120 IR005   3.4
 4 17121 IR005   3.4
 4 17122 IR005   3.4
 4 17123 IR005   3.4
 4 17124 IR005   3.4
 4 17125 IR005   3.4
 4 17126 IR005   3.4
 4 17127 IR005   3.4
 4 17128 IR005   3.4
 4 17129 IR005   3.4
 4 17130 IR005   3.4
 4 17131 IR005   3.4
 4 17132 IR005   3.4
 4 17133 IR005   3.4
 4 17134 IR005   3.4
 4 17135 IR005   3.4
 4 17136 IR005   3.4
 4 17137 IR005   3.4
 4 17138 IR005   3.4
 4 17139 IR005   3.4
 4 17140 IR005   3.4
 4 17141 IR005   3.4

*FERTILIZERS (INORGANIC)
@F FDATE  FMCD  FACD  FDEP  FAMN  FAMP  FAMK  FAMC  FAMO  FOCD FERNAME
 1 16252 FE001 AP002    10    36     6    12   -99   -99   -99 16,1
 1 16256 FE001 AP009     1     2     0     2   -99   -99   -99 16,1
 1 16259 FE001 AP009     1     2     0     2   -99   -99   -99 16,1
 1 16263 FE001 AP009     1     2     0     2   -99   -99   -99 16,1
 1 16266 FE001 AP009     1     2     0     2   -99   -99   -99 16,1
 1 16270 FE001 AP009     1     5     1     4   -99   -99   -99 16,1
 1 16273 FE001 AP009     1     5     1     4   -99   -99   -99 16,1
 1 16277 FE001 AP009     1     5     1     4   -99   -99   -99 16,1
 1 16280 FE001 AP009     1     5     1     4   -99   -99   -99 16,1
 1 16284 FE001 AP009     1    12     2     6   -99   -99   -99 16,1
 1 16287 FE001 AP009     1    12     2     6   -99   -99   -99 16,1
 1 16291 FE001 AP009     1    12     2     6   -99   -99   -99 16,1
 1 16294 FE001 AP009     1    12     2     6   -99   -99   -99 16,1
 1 16298 FE001 AP009     1    12     2     6   -99   -99   -99 16,1
 1 16301 FE001 AP009     1    12     2     6   -99   -99   -99 16,1
 1 16305 FE001 AP009     1    12     2     6   -99   -99   -99 16,1
 1 16308 FE001 AP009     1    12     2     6   -99   -99   -99 16,1
 1 16312 FE001 AP009     1    12     2     6   -99   -99   -99 16,1
 1 16315 FE001 AP009     1    12     2     6   -99   -99   -99 16,1
 1 16319 FE001 AP009     1    12     2     6   -99   -99   -99 16,1
 1 16322 FE001 AP009     1    12     2     6   -99   -99   -99 16,1
 1 16326 FE001 AP009     1    12     2     6   -99   -99   -99 16,1
 1 16329 FE001 AP009     1    12     2     6   -99   -99   -99 16,1
 1 16333 FE001 AP009     1     5     1     4   -99   -99   -99 16,1
 1 16336 FE001 AP009     1     5     1     4   -99   -99   -99 16,1
 1 16340 FE001 AP009     1     2     0     2   -99   -99   -99 16,1
 1 16343 FE001 AP009     1     2     0     2   -99   -99   -99 16,1
 1 16347 FE001 AP009     1     2     0     2   -99   -99   -99 16,1
 1 16350 FE001 AP009     1     2     0     2   -99   -99   -99 16,1
 2 16252 FE001 AP009    10    36     6    12   -99   -99   -99 16,2
 2 16256 FE001 AP009     1     2     0     2   -99   -99   -99 16,2
 2 16259 FE001 AP009     1     2     0     2   -99   -99   -99 16,2
 2 16263 FE001 AP009     1     2     0     2   -99   -99   -99 16,2
 2 16266 FE001 AP009     1     2     0     2   -99   -99   -99 16,2
 2 16270 FE001 AP009     1     4     1     4   -99   -99   -99 16,2
 2 16273 FE001 AP009     1     4     1     4   -99   -99   -99 16,2
 2 16277 FE001 AP009     1     4     1     4   -99   -99   -99 16,2
 2 16280 FE001 AP009     1     4     1     4   -99   -99   -99 16,2
 2 16284 FE001 AP009     1    10     2     6   -99   -99   -99 16,2
 2 16287 FE001 AP009     1    10     2     6   -99   -99   -99 16,2
 2 16291 FE001 AP009     1    10     2     6   -99   -99   -99 16,2
 2 16294 FE001 AP009     1    10     2     6   -99   -99   -99 16,2
 2 16298 FE001 AP009     1    10     2     6   -99   -99   -99 16,2
 2 16301 FE001 AP009     1    10     2     6   -99   -99   -99 16,2
 2 16305 FE001 AP009     1    10     2     6   -99   -99   -99 16,2
 2 16308 FE001 AP009     1    10     2     6   -99   -99   -99 16,2
 2 16312 FE001 AP009     1    10     2     6   -99   -99   -99 16,2
 2 16315 FE001 AP009     1    10     2     6   -99   -99   -99 16,2
 2 16319 FE001 AP009     1    10     2     6   -99   -99   -99 16,2
 2 16322 FE001 AP009     1    10     2     6   -99   -99   -99 16,2
 2 16326 FE001 AP009     1    10     2     6   -99   -99   -99 16,2
 2 16329 FE001 AP009     1    10     2     6   -99   -99   -99 16,2
 2 16333 FE001 AP009     1     4     1     4   -99   -99   -99 16,2
 2 16336 FE001 AP009     1     4     1     4   -99   -99   -99 16,2
 2 16340 FE001 AP009     1     2     0     2   -99   -99   -99 16,2
 2 16343 FE001 AP009     1     2     0     2   -99   -99   -99 16,2
 2 16347 FE001 AP009     1     2     0     2   -99   -99   -99 16,2
 2 16350 FE001 AP009     1     2     0     2   -99   -99   -99 16,2
 3 16252 FE001 AP002    10    36     6    12   -99   -99   -99 16,3
 3 16256 FE001 AP009     1     2     0     2   -99   -99   -99 16,3
 3 16259 FE001 AP009     1     2     0     2   -99   -99   -99 16,3
 3 16263 FE001 AP009     1     2     0     2   -99   -99   -99 16,3
 3 16266 FE001 AP009     1     2     0     2   -99   -99   -99 16,3
 3 16270 FE001 AP009     1     3     1     4   -99   -99   -99 16,3
 3 16273 FE001 AP009     1     3     1     4   -99   -99   -99 16,3
 3 16277 FE001 AP009     1     3     1     4   -99   -99   -99 16,3
 3 16280 FE001 AP009     1     3     1     4   -99   -99   -99 16,3
 3 16284 FE001 AP009     1     8     2     6   -99   -99   -99 16,3
 3 16287 FE001 AP009     1     8     2     6   -99   -99   -99 16,3
 3 16291 FE001 AP009     1     8     2     6   -99   -99   -99 16,3
 3 16294 FE001 AP009     1     8     2     6   -99   -99   -99 16,3
 3 16298 FE001 AP009     1     8     2     6   -99   -99   -99 16,3
 3 16301 FE001 AP009     1     8     2     6   -99   -99   -99 16,3
 3 16305 FE001 AP009     1     8     2     6   -99   -99   -99 16,3
 3 16308 FE001 AP009     1     8     2     6   -99   -99   -99 16,3
 3 16312 FE001 AP009     1     8     2     6   -99   -99   -99 16,3
 3 16315 FE001 AP009     1     8     2     6   -99   -99   -99 16,3
 3 16319 FE001 AP009     1     8     2     6   -99   -99   -99 16,3
 3 16322 FE001 AP009     1     8     2     6   -99   -99   -99 16,3
 3 16326 FE001 AP009     1     8     2     6   -99   -99   -99 16,3
 3 16329 FE001 AP009     1     8     2     6   -99   -99   -99 16,3
 3 16333 FE001 AP009     1     3     1     4   -99   -99   -99 16,3
 3 16336 FE001 AP009     1     3     1     4   -99   -99   -99 16,3
 3 16340 FE001 AP009     1     2     0     2   -99   -99   -99 16,3
 3 16343 FE001 AP009     1     2     0     2   -99   -99   -99 16,3
 3 16347 FE001 AP009     1     2     0     2   -99   -99   -99 16,3
 3 16350 FE001 AP009     1     2     0     2   -99   -99   -99 16,3
 4 16252 FE001 AP002    10    36     6    12   -99   -99   -99 16,4
 4 16256 FE001 AP009     1     1     0     2   -99   -99   -99 16,4
 4 16259 FE001 AP009     1     1     0     2   -99   -99   -99 16,4
 4 16263 FE001 AP009     1     1     0     2   -99   -99   -99 16,4
 4 16266 FE001 AP009     1     1     0     2   -99   -99   -99 16,4
 4 16270 FE001 AP009     1     2     1     4   -99   -99   -99 16,4
 4 16273 FE001 AP009     1     2     1     4   -99   -99   -99 16,4
 4 16277 FE001 AP009     1     2     1     4   -99   -99   -99 16,4
 4 16280 FE001 AP009     1     2     1     4   -99   -99   -99 16,4
 4 16284 FE001 AP009     1     4     2     6   -99   -99   -99 16,4
 4 16287 FE001 AP009     1     4     2     6   -99   -99   -99 16,4
 4 16291 FE001 AP009     1     4     2     6   -99   -99   -99 16,4
 4 16294 FE001 AP009     1     4     2     6   -99   -99   -99 16,4
 4 16298 FE001 AP009     1     4     2     6   -99   -99   -99 16,4
 4 16301 FE001 AP009     1     4     2     6   -99   -99   -99 16,4
 4 16305 FE001 AP009     1     4     2     6   -99   -99   -99 16,4
 4 16308 FE001 AP009     1     4     2     6   -99   -99   -99 16,4
 4 16312 FE001 AP009     1     4     2     6   -99   -99   -99 16,4
 4 16315 FE001 AP009     1     4     2     6   -99   -99   -99 16,4
 4 16319 FE001 AP009     1     4     2     6   -99   -99   -99 16,4
 4 16322 FE001 AP009     1     4     2     6   -99   -99   -99 16,4
 4 16326 FE001 AP009     1     4     2     6   -99   -99   -99 16,4
 4 16329 FE001 AP009     1     4     2     6   -99   -99   -99 16,4
 4 16333 FE001 AP009     1     2     1     4   -99   -99   -99 16,4
 4 16336 FE001 AP009     1     2     1     4   -99   -99   -99 16,4
 4 16340 FE001 AP009     1     1     0     2   -99   -99   -99 16,4
 4 16343 FE001 AP009     1     1     0     2   -99   -99   -99 16,4
 4 16347 FE001 AP009     1     2     0     2   -99   -99   -99 16,4
 4 16350 FE001 AP009     1     1     0     2   -99   -99   -99 16,4
 5 17038 FE001 AP002    10    36     6    12   -99   -99   -99 17,1
 5 17044 FE001 AP009     1     2     0     2   -99   -99   -99 17,1
 5 17047 FE001 AP009     1     2     0     2   -99   -99   -99 17,1
 5 17051 FE001 AP009     1     2     0     2   -99   -99   -99 17,1
 5 17054 FE001 AP009     1     2     0     2   -99   -99   -99 17,1
 5 17058 FE001 AP009     1     5     1     4   -99   -99   -99 17,1
 5 17061 FE001 AP009     1     5     1     4   -99   -99   -99 17,1
 5 17065 FE001 AP009     1     5     1     4   -99   -99   -99 17,1
 5 17068 FE001 AP009     1     5     1     4   -99   -99   -99 17,1
 5 17072 FE001 AP009     1    12     2     6   -99   -99   -99 17,1
 5 17075 FE001 AP009     1    12     2     6   -99   -99   -99 17,1
 5 17079 FE001 AP009     1    12     2     6   -99   -99   -99 17,1
 5 17082 FE001 AP009     1    12     2     6   -99   -99   -99 17,1
 5 17086 FE001 AP009     1    12     2     6   -99   -99   -99 17,1
 5 17089 FE001 AP009     1    12     2     6   -99   -99   -99 17,1
 5 17093 FE001 AP009     1    12     2     6   -99   -99   -99 17,1
 5 17096 FE001 AP009     1    12     2     6   -99   -99   -99 17,1
 5 17100 FE001 AP009     1    12     2     6   -99   -99   -99 17,1
 5 17103 FE001 AP009     1    12     2     6   -99   -99   -99 17,1
 5 17107 FE001 AP009     1    12     2     6   -99   -99   -99 17,1
 5 17110 FE001 AP009     1    12     2     6   -99   -99   -99 17,1
 5 17114 FE001 AP009     1    12     2     6   -99   -99   -99 17,1
 5 17117 FE001 AP009     1    12     2     6   -99   -99   -99 17,1
 5 17121 FE001 AP009     1     5     1     4   -99   -99   -99 17,1
 5 17124 FE001 AP009     1     5     1     4   -99   -99   -99 17,1
 5 17128 FE001 AP009     1     2     0     2   -99   -99   -99 17,1
 5 17131 FE001 AP009     1     2     0     2   -99   -99   -99 17,1
 5 17135 FE001 AP009     1     2     0     2   -99   -99   -99 17,1
 5 17138 FE001 AP009     1     2     0     2   -99   -99   -99 17,1
 6 17038 FE001 AP002    10    36     6    12   -99   -99   -99 17,2
 6 17044 FE001 AP009     1     2     0     2   -99   -99   -99 17,2
 6 17047 FE001 AP009     1     2     0     2   -99   -99   -99 17,2
 6 17051 FE001 AP009     1     2     0     2   -99   -99   -99 17,2
 6 17054 FE001 AP009     1     2     0     2   -99   -99   -99 17,2
 6 17058 FE001 AP009     1     4     1     4   -99   -99   -99 17,2
 6 17061 FE001 AP009     1     4     1     4   -99   -99   -99 17,2
 6 17065 FE001 AP009     1     4     1     4   -99   -99   -99 17,2
 6 17068 FE001 AP009     1     4     1     4   -99   -99   -99 17,2
 6 17072 FE001 AP009     1    10     2     6   -99   -99   -99 17,2
 6 17075 FE001 AP009     1    10     2     6   -99   -99   -99 17,2
 6 17079 FE001 AP009     1    10     2     6   -99   -99   -99 17,2
 6 17082 FE001 AP009     1    10     2     6   -99   -99   -99 17,2
 6 17086 FE001 AP009     1    10     2     6   -99   -99   -99 17,2
 6 17089 FE001 AP009     1    10     2     6   -99   -99   -99 17,2
 6 17093 FE001 AP009     1    10     2     6   -99   -99   -99 17,2
 6 17096 FE001 AP009     1    10     2     6   -99   -99   -99 17,2
 6 17100 FE001 AP009     1    10     2     6   -99   -99   -99 17,2
 6 17103 FE001 AP009     1    10     2     6   -99   -99   -99 17,2
 6 17107 FE001 AP009     1    10     2     6   -99   -99   -99 17,2
 6 17110 FE001 AP009     1    10     2     6   -99   -99   -99 17,2
 6 17114 FE001 AP009     1    10     2     6   -99   -99   -99 17,2
 6 17117 FE001 AP009     1    10     2     6   -99   -99   -99 17,2
 6 17121 FE001 AP009     1     4     1     4   -99   -99   -99 17,2
 6 17124 FE001 AP009     1     4     1     4   -99   -99   -99 17,2
 6 17128 FE001 AP009     1     2     0     2   -99   -99   -99 17,2
 6 17131 FE001 AP009     1     2     0     2   -99   -99   -99 17,2
 6 17135 FE001 AP009     1     2     0     2   -99   -99   -99 17,2
 6 17138 FE001 AP009     1     2     0     2   -99   -99   -99 17,2
 7 17038 FE001 AP002    10    36     6    12   -99   -99   -99 17,3
 7 17044 FE001 AP009     1     2     0     2   -99   -99   -99 17,3
 7 17047 FE001 AP009     1     2     0     2   -99   -99   -99 17,3
 7 17048 FE001 AP009     1     2     0     2   -99   -99   -99 17,3
 7 17054 FE001 AP009     1     2     0     2   -99   -99   -99 17,3
 7 17058 FE001 AP009     1     3     1     4   -99   -99   -99 17,3
 7 17061 FE001 AP009     1     3     1     4   -99   -99   -99 17,3
 7 17065 FE001 AP009     1     3     1     4   -99   -99   -99 17,3
 7 17068 FE001 AP009     1     3     1     4   -99   -99   -99 17,3
 7 17072 FE001 AP009     1     8     2     6   -99   -99   -99 17,3
 7 17075 FE001 AP009     1     8     2     6   -99   -99   -99 17,3
 7 17079 FE001 AP009     1     8     2     6   -99   -99   -99 17,3
 7 17082 FE001 AP009     1     8     2     6   -99   -99   -99 17,3
 7 17086 FE001 AP009     1     8     2     6   -99   -99   -99 17,3
 7 17089 FE001 AP009     1     8     2     6   -99   -99   -99 17,3
 7 17093 FE001 AP009     1     8     2     6   -99   -99   -99 17,3
 7 17096 FE001 AP009     1     8     2     6   -99   -99   -99 17,3
 7 17100 FE001 AP009     1     8     2     6   -99   -99   -99 17,3
 7 17103 FE001 AP009     1     8     2     6   -99   -99   -99 17,3
 7 17107 FE001 AP009     1     8     2     6   -99   -99   -99 17,3
 7 17110 FE001 AP009     1     8     2     6   -99   -99   -99 17,3
 7 17114 FE001 AP009     1     8     2     6   -99   -99   -99 17,3
 7 17117 FE001 AP009     1     8     2     6   -99   -99   -99 17,3
 7 17121 FE001 AP009     1     3     1     4   -99   -99   -99 17,3
 7 17124 FE001 AP009     1     3     1     4   -99   -99   -99 17,3
 7 17128 FE001 AP009     1     2     0     2   -99   -99   -99 17,3
 7 17131 FE001 AP009     1     2     0     2   -99   -99   -99 17,3
 7 17135 FE001 AP009     1     2     0     2   -99   -99   -99 17,3
 7 17138 FE001 AP009     1     2     0     2   -99   -99   -99 17,3
 8 17038 FE001 AP002    10    36     6    12   -99   -99   -99 17,4
 8 17044 FE001 AP009     1     1     0     2   -99   -99   -99 17,4
 8 17047 FE001 AP009     1     1     0     2   -99   -99   -99 17,4
 8 17051 FE001 AP009     1     1     0     2   -99   -99   -99 17,4
 8 17054 FE001 AP009     1     1     0     2   -99   -99   -99 17,4
 8 17058 FE001 AP009     1     2     1     4   -99   -99   -99 17,4
 8 17061 FE001 AP009     1     2     1     4   -99   -99   -99 17,4
 8 17065 FE001 AP009     1     2     1     4   -99   -99   -99 17,4
 8 17068 FE001 AP009     1     2     1     4   -99   -99   -99 17,4
 8 17072 FE001 AP009     1     4     2     6   -99   -99   -99 17,4
 8 17075 FE001 AP009     1     4     2     6   -99   -99   -99 17,4
 8 17079 FE001 AP009     1     4     2     6   -99   -99   -99 17,4
 8 17082 FE001 AP009     1     4     2     6   -99   -99   -99 17,4
 8 17086 FE001 AP009     1     4     2     6   -99   -99   -99 17,4
 8 17089 FE001 AP009     1     4     2     6   -99   -99   -99 17,4
 8 17093 FE001 AP009     1     4     2     6   -99   -99   -99 17,4
 8 17096 FE001 AP009     1     4     2     6   -99   -99   -99 17,4
 8 17100 FE001 AP009     1     4     2     6   -99   -99   -99 17,4
 8 17103 FE001 AP009     1     4     2     6   -99   -99   -99 17,4
 8 17107 FE001 AP009     1     4     2     6   -99   -99   -99 17,4
 8 17110 FE001 AP009     1     4     2     6   -99   -99   -99 17,4
 8 17114 FE001 AP009     1     4     2     6   -99   -99   -99 17,4
 8 17117 FE001 AP009     1     4     2     6   -99   -99   -99 17,4
 8 17121 FE001 AP009     1     2     1     4   -99   -99   -99 17,4
 8 17124 FE001 AP009     1     2     1     4   -99   -99   -99 17,4
 8 17128 FE001 AP009     1     1     0     2   -99   -99   -99 17,4
 8 17131 FE001 AP009     1     1     0     2   -99   -99   -99 17,4
 8 17135 FE001 AP009     1     1     0     2   -99   -99   -99 17,4
 8 17138 FE001 AP009     1     1     0     2   -99   -99   -99 17,4

*ENVIRONMENT MODIFICATIONS
@E ODATE EDAY  ERAD  EMAX  EMIN  ERAIN ECO2  EDEW  EWIND ENVNAME  
 1 16252 A   0 A   0 A   0 A   0 M0.00 A   0 A   0 A   0 2016
 1 16366 A   0 A   0 A   0 A   0 M0.00 A   0 A   0 A   0 2016
 2 17038 A   0 A   0 A   0 A   0 M0.00 A   0 A   0 A   0 2017
 2 17151 A   0 A   0 A   0 A   0 M0.00 A   0 A   0 A   0 2017

*SIMULATION CONTROLS
@N GENERAL     NYERS NREPS START SDATE RSEED SNAME.................... SMODEL
 1 GE              1     1     S 16251  2150 2016
@N OPTIONS     WATER NITRO SYMBI PHOSP POTAS DISES  CHEM  TILL   CO2
 1 OP              Y     Y     Y     N     N     N     N     Y     M
@N METHODS     WTHER INCON LIGHT EVAPO INFIL PHOTO HYDRO NSWIT MESOM MESEV MESOL
 1 ME              M     M     E     R     S     L     G     1     G     S     2
@N MANAGEMENT  PLANT IRRIG FERTI RESID HARVS
 1 MA              R     R     R     R     M
@N OUTPUTS     FNAME OVVEW SUMRY FROPT GROUT CAOUT WAOUT NIOUT MIOUT DIOUT VBOSE CHOUT OPOUT FMOPT
 1 OU              N     Y     Y     1     Y     Y     Y     Y     Y     N     Y     N     Y     A

@  AUTOMATIC MANAGEMENT
@N PLANTING    PFRST PLAST PH2OL PH2OU PH2OD PSTMX PSTMN
 1 PL          16252 16252    40   100    30    40    10
@N IRRIGATION  IMDEP ITHRL ITHRU IROFF IMETH IRAMT IREFF
 1 IR             30    50   100 GS000 IR001    10     1
@N NITROGEN    NMDEP NMTHR NAMNT NCODE NAOFF
 1 NI             30    50    25 FE001 GS000
@N RESIDUES    RIPCN RTIME RIDEP
 1 RE            100     1    20
@N HARVEST     HFRST HLAST HPCNP HPCNR
 1 HA              0 16252   100     0

@N GENERAL     NYERS NREPS START SDATE RSEED SNAME.................... SMODEL