*EXP.DETAILS: UFLZ1801TM 

*GENERAL
@ADDRESS
 University of florida
 
@SITE
 Citra
 
*TREATMENTS                        -------------FACTOR LEVELS------------
@N R O C TNAME.................... CU FL SA IC MP MI MF MR MC MT ME MH SM
 1 1 1 0 2006_I1_N1                 1  1  0  1  1  1  1  0  0  0  0  1  1
 2 1 1 0 2006_I1_N2                 1  1  0  1  1  1  2  0  0  0  0  1  1
 3 1 1 0 2006_I1_N3                 1  1  0  1  1  1  3  0  0  0  0  1  1
 4 1 1 0 2006_I2_N1                 1  1  0  1  1  2  1  0  0  0  0  1  1
 5 1 1 0 2006_I2_N2                 1  1  0  1  1  2  2  0  0  0  0  1  1
 6 1 1 0 2006_I2_N3                 1  1  0  1  1  2  3  0  0  0  0  1  1
 7 1 1 0 2006_I3_N1                 1  1  0  1  1  3  1  0  0  0  0  1  1
 8 1 1 0 2006_I3_N2                 1  1  0  1  1  3  2  0  0  0  0  1  1
 9 1 1 0 2006_I3_N3                 1  1  0  1  1  3  3  0  0  0  0  1  1

*CULTIVARS
@C CR INGENO CNAME
 1 TM TM0008 TM0008

*FIELDS
@L ID_FIELD WSTA....  FLSA  FLOB  FLDT  FLDD  FLDS  FLST SLTX  SLDP  ID_SOIL    FLNAME
 1 UFLZ1801 UFC20503   -99   -99 -99     -99   -99 -99   -99    -99  UFCT000003 field1
@L ...........XCRD ...........YCRD .....ELEV .............AREA .SLEN .FLWR .SLAS FLHST FHDUR
 1            -99             -99       -99               -99   -99   -99   -99   -99   -99
@L  BDWD  BDHT PMALB
 1    80    30  0.03

*INITIAL CONDITIONS
@C   PCR ICDAT  ICRT  ICND  ICRN  ICRE  ICWD ICRES ICREN ICREP ICRIP ICRID ICNAME
 1   -99 06090   -99   -99   -99   -99   -99   -99   -99   -99   -99   -99 field1
@C  ICBL  SH2O  SNH4  SNO3
 1    30  0.11   -99   1.8
 1    60  0.11   -99   2.6
 1    90  0.11   -99   2.7

*PLANTING DETAILS
@P PDATE EDATE  PPOP  PPOE  PLME  PLDS  PLRS  PLRD  PLDP  PLWT  PAGE  PENV  PLPH  SPRL                        PLNAME
 1 06100   -99  1.01  1.01     T   -99   180   -99     1   2.2    28    26   -99     2                        planting1--planting1

*IRRIGATION AND WATER MANAGEMENT
@I  EFIR  IDEP  ITHR  IEPT  IOFF  IAME  IAMT IRNAME
 1   -99   -99   -99   -99   -99   -99   -99 drip:08:00--Irrigation1
@I  IRLN IRSPC IROFS IRDEP
 1     1    20     0     1
 1     2    20     0    15
@I IDATE  IROP IRVAL IRSTR IRDUR  IRLN
 1 06100 IR005 0.194 08:00    24     1
 1 06107 IR005 0.194 08:00    24     1
 1 06114 IR005 0.194 08:00    24     1
 1 06114 IR005 0.194 08:22  23.4     2
 1 06114 IR005 0.194 10:22  23.3     2
 1 06114 IR005 0.194 12:24  23.9     2
 1 06114 IR005 0.194 14:23  23.4     2
 1 06114 IR005 0.194 16:21  21.5     2
 1 06115 IR005 0.194 08:23    23     2
 1 06115 IR005 0.194 09:09   3.4     2
 1 06115 IR005 0.194 10:22  21.8     2
 1 06115 IR005 0.194 12:21    21     2
 1 06115 IR005 0.194 14:05   5.3     2
 1 06115 IR005 0.194 16:21  21.5     2
 1 06116 IR005 0.194 08:24  23.8     2
 1 06116 IR005 0.194 10:22  22.2     2
 1 06116 IR005 0.194 12:21  21.6     2
 1 06116 IR005 0.194 14:24  23.6     2
 1 06116 IR005 0.194 16:22    22     2
 1 06117 IR005 0.194 12:07   7.7     2
 1 06117 IR005 0.194 14:09   8.8     2
 1 06117 IR005 0.194 16:09   8.7     2
 1 06118 IR005 0.194 08:19  18.4     2
 1 06118 IR005 0.194 10:09   9.6     2
 1 06118 IR005 0.194 12:10   9.7     2
 1 06118 IR005 0.194 14:10   9.4     2
 1 06118 IR005 0.194 14:26  10.6     2
 1 06118 IR005 0.194 16:08   7.8     2
 1 06119 IR005 0.194 08:19  18.6     2
 1 06119 IR005 0.194 10:10   9.6     2
 1 06119 IR005 0.194 12:09   8.6     2
 1 06119 IR005 0.194 14:09   8.5     2
 1 06119 IR005 0.194 16:09   8.6     2
 1 06120 IR005 0.194 08:18  17.6     2
 1 06120 IR005 0.194 10:09   8.4     2
 1 06120 IR005 0.194 12:09   8.6     2
 1 06120 IR005 0.194 14:09   8.6     2
 1 06120 IR005 0.194 16:09   8.6     2
 1 06121 IR005 0.194 08:00    24     1
 1 06121 IR005 0.194 08:18  17.6     2
 1 06121 IR005 0.194 10:10   9.3     2
 1 06121 IR005 0.194 12:10   9.6     2
 1 06121 IR005 0.194 14:11  11.1     2
 1 06121 IR005 0.194 16:10  10.1     2
 1 06122 IR005 0.194 08:17    17     2
 1 06122 IR005 0.194 10:09   8.8     2
 1 06122 IR005 0.194 12:10  10.1     2
 1 06122 IR005 0.194 14:11  10.7     2
 1 06122 IR005 0.194 14:24   5.6     2
 1 06122 IR005 0.194 15:37  61.1     2
 1 06123 IR005 0.194 08:15  15.1     2
 1 06123 IR005 0.194 10:10   9.9     2
 1 06123 IR005 0.194 11:05  38.8     2
 1 06123 IR005 0.194 14:07   7.5     2
 1 06123 IR005 0.194 16:10   9.9     2
 1 06124 IR005 0.194 08:19  19.1     2
 1 06124 IR005 0.194 10:11  10.8     2
 1 06124 IR005 0.194 12:10  10.5     2
 1 06124 IR005 0.194 12:23   5.6     2
 1 06124 IR005 0.194 14:11  11.6     2
 1 06124 IR005 0.194 14:23   4.6     2
 1 06124 IR005 0.194 16:11  11.6     2
 1 06125 IR005 0.194 08:19  19.7     2
 1 06125 IR005 0.194 10:11  11.1     2
 1 06125 IR005 0.194 12:11    11     2
 1 06125 IR005 0.194 12:21   4.1     2
 1 06125 IR005 0.194 14:12  11.9     2
 1 06125 IR005 0.194 16:20  20.5     2
 1 06126 IR005 0.194 08:21  21.1     2
 1 06126 IR005 0.194 10:11  10.6     2
 1 06126 IR005 0.194 12:11  10.9     2
 1 06126 IR005 0.194 12:22   4.1     2
 1 06126 IR005 0.194 14:11  10.8     2
 1 06126 IR005 0.194 14:23   4.6     2
 1 06126 IR005 0.194 16:10  10.4     2
 1 06127 IR005 0.194 08:20  19.8     2
 1 06127 IR005 0.194 10:12  11.6     2
 1 06127 IR005 0.194 12:22  21.6     2
 1 06127 IR005 0.194 14:13  12.7     2
 1 06127 IR005 0.194 16:12  11.6     2
 1 06128 IR005 0.194 08:00    24     1
 1 06128 IR005 0.194 08:21  20.6     2
 1 06128 IR005 0.194 10:11  10.5     2
 1 06128 IR005 0.194 12:11    11     2
 1 06128 IR005 0.194 14:22  21.6     2
 1 06128 IR005 0.194 16:22  21.7     2
 1 06130 IR005 0.194 10:05   5.5     2
 1 06130 IR005 0.194 12:09   9.7     2
 1 06130 IR005 0.194 14:10   9.7     2
 1 06130 IR005 0.194 16:09   8.6     2
 1 06131 IR005 0.194 08:04   4.4     2
 1 06131 IR005 0.194 10:07   6.8     2
 1 06132 IR005 0.194 08:08   8.1     2
 1 06132 IR005 0.194 10:06   5.7     2
 1 06132 IR005 0.194 12:06   6.3     2
 1 06132 IR005 0.194 14:07   7.4     2
 1 06132 IR005 0.194 16:09   8.6     2
 1 06133 IR005 0.194 08:14  14.1     2
 1 06133 IR005 0.194 10:07   7.4     2
 1 06133 IR005 0.194 12:09   8.5     2
 1 06133 IR005 0.194 14:09   9.2     2
 1 06133 IR005 0.194 16:09   9.2     2
 1 06134 IR005 0.194 08:16  16.3     2
 1 06134 IR005 0.194 10:08   8.2     2
 1 06134 IR005 0.194 12:09   9.1     2
 1 06134 IR005 0.194 14:11  11.4     2
 1 06134 IR005 0.194 16:11  11.1     2
 1 06135 IR005 0.194 08:00    24     1
 1 06135 IR005 0.194 08:19  18.5     2
 1 06135 IR005 0.194 10:07     7     2
 1 06135 IR005 0.194 12:07   6.5     2
 1 06135 IR005 0.194 14:10  10.2     2
 1 06135 IR005 0.194 16:10  10.1     2
 1 06136 IR005 0.194 08:18  18.2     2
 1 06136 IR005 0.194 10:05   5.2     2
 1 06136 IR005 0.194 12:04   4.8     2
 1 06137 IR005 0.194 08:11  11.1     2
 1 06137 IR005 0.194 10:06   6.2     2
 1 06137 IR005 0.194 12:08   8.2     2
 1 06137 IR005 0.194 14:09   8.8     2
 1 06137 IR005 0.194 16:09     9     2
 1 06138 IR005 0.194 08:16    16     2
 1 06138 IR005 0.194 10:08   8.2     2
 1 06138 IR005 0.194 12:10   9.8     2
 1 06138 IR005 0.194 14:12  12.1     2
 1 06138 IR005 0.194 16:12  12.1     2
 1 06139 IR005 0.194 08:19  19.2     2
 1 06139 IR005 0.194 10:09   8.8     2
 1 06139 IR005 0.194 10:48   8.2     2
 1 06139 IR005 0.194 12:06   6.2     2
 1 06139 IR005 0.194 14:11    11     2
 1 06139 IR005 0.194 16:12  11.8     2
 1 06139 IR005 0.194 16:23   5.1     2
 1 06140 IR005 0.194 08:19  18.9     2
 1 06140 IR005 0.194 10:08   7.8     2
 1 06140 IR005 0.194 12:12  11.8     2
 1 06140 IR005 0.194 14:15  14.6     2
 1 06140 IR005 0.194 16:17  17.1     2
 1 06141 IR005 0.194 08:21  20.9     2
 1 06141 IR005 0.194 10:10    10     2
 1 06141 IR005 0.194 12:13  12.7     2
 1 06141 IR005 0.194 12:23   5.1     2
 1 06141 IR005 0.194 14:17  16.7     2
 1 06141 IR005 0.194 16:23  23.3     2
 1 06142 IR005 0.194 08:00    24     1
 1 06142 IR005 0.194 08:14    14     2
 1 06142 IR005 0.194 08:24  23.8     2
 1 06142 IR005 0.194 10:08   8.6     2
 1 06142 IR005 0.194 12:11  11.8     2
 1 06142 IR005 0.194 14:20  20.9     2
 1 06142 IR005 0.194 16:17  17.4     2
 1 06143 IR005 0.194 08:18  18.5     2
 1 06143 IR005 0.194 10:09   9.1     2
 1 06143 IR005 0.194 12:12  12.3     2
 1 06143 IR005 0.194 14:13  13.7     2
 1 06143 IR005 0.194 15:17  37.5     2
 1 06143 IR005 0.194 15:31   5.8     2
 1 06144 IR005 0.194 10:09   8.6     2
 1 06144 IR005 0.194 12:11  11.4     2
 1 06144 IR005 0.194 12:22   5.5     2
 1 06144 IR005 0.194 14:14    14     2
 1 06144 IR005 0.194 16:15  15.2     2
 1 06145 IR005 0.194 08:16  16.2     2
 1 06145 IR005 0.194 10:08   8.8     2
 1 06145 IR005 0.194 12:12  12.3     2
 1 06145 IR005 0.194 14:19  19.6     2
 1 06145 IR005 0.194 16:21    21     2
 1 06146 IR005 0.194 08:23  22.7     2
 1 06146 IR005 0.194 10:15  15.4     2
 1 06146 IR005 0.194 12:23  23.4     2
 1 06146 IR005 0.194 14:17  17.1     2
 1 06146 IR005 0.194 16:19  19.2     2
 1 06147 IR005 0.194 08:22  22.1     2
 1 06147 IR005 0.194 10:11  11.1     2
 1 06147 IR005 0.194 12:13  13.5     2
 1 06147 IR005 0.194 14:22  21.9     2
 1 06147 IR005 0.194 16:20  20.4     2
 1 06148 IR005 0.194 08:23  23.1     2
 1 06148 IR005 0.194 10:22  21.9     2
 1 06148 IR005 0.194 12:20  19.9     2
 1 06148 IR005 0.194 14:23  23.2     2
 1 06148 IR005 0.194 16:23  23.6     2
 1 06149 IR005 0.194 08:00    24     1
 1 06149 IR005 0.194 08:07   7.3     2
 1 06149 IR005 0.194 10:03   2.5     2
 1 06149 IR005 0.194 12:09     9     2
 1 06149 IR005 0.194 14:16  16.4     2
 1 06149 IR005 0.194 16:21  21.7     2
 1 06150 IR005 0.194 08:20  20.7     2
 1 06150 IR005 0.194 10:06   6.2     2
 1 06150 IR005 0.194 12:11    11     2
 1 06150 IR005 0.194 14:15  15.5     2
 1 06150 IR005 0.194 16:19  19.7     2
 1 06151 IR005 0.194 08:21  20.7     2
 1 06151 IR005 0.194 10:10  10.6     2
 1 06151 IR005 0.194 12:12  12.7     2
 1 06151 IR005 0.194 14:15  15.7     2
 1 06151 IR005 0.194 16:22    22     2
 1 06152 IR005 0.194 08:23  23.3     2
 1 06152 IR005 0.194 10:15  15.6     2
 1 06152 IR005 0.194 12:15  15.6     2
 1 06152 IR005 0.194 14:08   7.7     2
 1 06153 IR005 0.194 08:11  11.6     2
 1 06153 IR005 0.194 10:07   6.9     2
 1 06153 IR005 0.194 12:09   9.6     2
 1 06153 IR005 0.194 14:10  10.6     2
 1 06153 IR005 0.194 16:06   5.8     2
 1 06154 IR005 0.194 08:12    12     2
 1 06154 IR005 0.194 10:07   7.1     2
 1 06154 IR005 0.194 12:06   6.1     2
 1 06155 IR005 0.194 08:03   3.4     2
 1 06155 IR005 0.194 10:03   2.9     2
 1 06155 IR005 0.194 12:09   8.8     2
 1 06155 IR005 0.194 14:11  11.2     2
 1 06155 IR005 0.194 16:12  12.2     2
 1 06156 IR005 0.194 08:00    24     1
 1 06156 IR005 0.194 08:15  15.9     2
 1 06156 IR005 0.194 10:06   6.9     2
 1 06156 IR005 0.194 12:16  16.3     2
 1 06156 IR005 0.194 14:19    20     2
 1 06156 IR005 0.194 16:15  15.5     2
 1 06157 IR005 0.194 08:18  18.3     2
 1 06157 IR005 0.194 10:07   7.9     2
 1 06157 IR005 0.194 12:12  12.5     2
 1 06157 IR005 0.194 14:15  15.6     2
 1 06157 IR005 0.194 16:13  13.1     2
 1 06158 IR005 0.194 08:19  19.2     2
 1 06158 IR005 0.194 10:10  10.3     2
 1 06158 IR005 0.194 12:13  13.3     2
 1 06158 IR005 0.194 14:16    16     2
 1 06158 IR005 0.194 16:19  19.9     2
 1 06159 IR005 0.194 08:21  21.3     2
 1 06159 IR005 0.194 10:11  10.6     2
 1 06159 IR005 0.194 12:15  15.4     2
 1 06159 IR005 0.194 14:13  13.2     2
 1 06159 IR005 0.194 16:20    20     2
 1 06160 IR005 0.194 08:23    23     2
 1 06160 IR005 0.194 10:23   5.5     2
 1 06160 IR005 0.194 12:22  22.4     2
 1 06160 IR005 0.194 14:21  20.8     2
 1 06160 IR005 0.194 16:21    21     2
 1 06161 IR005 0.194 08:24  23.9     2
 1 06161 IR005 0.194 10:22  21.5     2
 1 06161 IR005 0.194 12:22  21.4     2
 1 06161 IR005 0.194 14:22  21.7     2
 1 06161 IR005 0.194 16:23  23.2     2
 1 06162 IR005 0.194 08:23  23.4     2
 1 06162 IR005 0.194 10:19  19.3     2
 1 06162 IR005 0.194 12:22  22.3     2
 1 06162 IR005 0.194 14:23  22.7     2
 1 06162 IR005 0.194 16:17  16.8     2
 1 06163 IR005 0.194 08:00    24     1
 1 06163 IR005 0.194 08:12  12.5     2
 1 06163 IR005 0.194 10:04     5     2
 1 06163 IR005 0.194 12:02   2.7     2
 1 06165 IR005 0.194 14:15  20.2     2
 1 06165 IR005 0.194 16:04   3.6     2
 1 06166 IR005 0.194 08:10   9.2     2
 1 06166 IR005 0.194 10:05   4.2     2
 1 06166 IR005 0.194 12:07   6.4     2
 1 06166 IR005 0.194 14:10   9.3     2
 1 06166 IR005 0.194 16:11   9.7     2
 1 06167 IR005 0.194 08:14  13.6     2
 1 06167 IR005 0.194 10:06     5     2
 1 06167 IR005 0.194 12:08   7.3     2
 1 06167 IR005 0.194 14:11  10.2     2
 1 06167 IR005 0.194 16:13  11.7     2
 1 06168 IR005 0.194 08:15  14.4     2
 1 06168 IR005 0.194 10:06   4.8     2
 1 06168 IR005 0.194 12:09   8.2     2
 1 06168 IR005 0.194 14:12  10.7     2
 1 06168 IR005 0.194 16:11  10.4     2
 1 06169 IR005 0.194 08:16  15.3     2
 1 06169 IR005 0.194 10:07   5.7     2
 1 06169 IR005 0.194 12:07   5.9     2
 1 06169 IR005 0.194 14:06     5     2
 1 06169 IR005 0.194 16:07   6.7     2
 1 06170 IR005 0.194 08:00    24     1
 1 06170 IR005 0.194 08:11   9.8     2
 1 06170 IR005 0.194 10:04     3     2
 1 06170 IR005 0.194 12:05     4     2
 1 06170 IR005 0.194 14:09   7.7     2
 1 06170 IR005 0.194 16:09   8.1     2
 1 06171 IR005 0.194 08:06   4.5     2
 1 06171 IR005 0.194 10:04   2.6     2
 1 06171 IR005 0.194 12:06   5.4     2
 1 06171 IR005 0.194 14:10     9     2
 1 06172 IR005 0.194 08:12  11.9     2
 1 06172 IR005 0.194 10:06   5.7     2
 1 06172 IR005 0.194 12:07   6.6     2
 1 06172 IR005 0.194 14:09   8.3     2
 1 06172 IR005 0.194 16:10   8.7     2
 1 06173 IR005 0.194 08:15  13.8     2
 1 06173 IR005 0.194 10:07   5.7     2
 1 06173 IR005 0.194 12:07   6.4     2
 1 06173 IR005 0.194 14:10   8.8     2
 1 06173 IR005 0.194 16:09   8.3     2
 1 06174 IR005 0.194 08:15  14.2     2
 1 06174 IR005 0.194 10:07   6.5     2
 1 06174 IR005 0.194 12:08   7.4     2
 1 06174 IR005 0.194 14:10   9.1     2
 1 06174 IR005 0.194 16:09   8.5     2
 1 06175 IR005 0.194 08:17  15.9     2
 1 06175 IR005 0.194 10:08   6.7     2
 1 06175 IR005 0.194 12:07   6.5     2
 1 06175 IR005 0.194 14:08   7.3     2
 1 06175 IR005 0.194 16:08   7.3     2
 1 06176 IR005 0.194 08:15  13.5     2
 1 06176 IR005 0.194 10:07   5.7     2
 1 06176 IR005 0.194 12:09   7.7     2
 1 06177 IR005 0.194 08:00    24     1
 1 06178 IR005 0.194 08:09   7.6     2
 1 06179 IR005 0.194 08:08   7.8     2
 1 06179 IR005 0.194 10:04   3.6     2
 1 06179 IR005 0.194 12:07   6.5     2
 1 06179 IR005 0.194 14:08   7.3     2
 1 06180 IR005 0.194 12:24  22.8     2
 1 06180 IR005 0.194 14:12  11.6     2
 1 06180 IR005 0.194 16:09   8.5     2
 1 06181 IR005 0.194 08:12  10.9     2
 1 06181 IR005 0.194 10:06   5.2     2
 1 06181 IR005 0.194 12:08   7.2     2
 1 06181 IR005 0.194 14:09   8.1     2
 1 06181 IR005 0.194 16:08     7     2
 1 06182 IR005 0.194 08:14    13     2
 1 06182 IR005 0.194 10:07   5.6     2
 1 06182 IR005 0.194 12:08   6.7     2
 1 06182 IR005 0.194 14:09   7.7     2
 1 06182 IR005 0.194 16:10   9.3     2
 1 06183 IR005 0.194 08:15  14.1     2
 1 06183 IR005 0.194 10:06   4.6     2
 1 06183 IR005 0.194 12:07   5.7     2
 1 06183 IR005 0.194 14:09   7.6     2
 1 06183 IR005 0.194 16:08   6.5     2
 1 06184 IR005 0.194 08:00    24     1
 1 06184 IR005 0.194 08:13  12.4     2
 1 06184 IR005 0.194 10:06   5.7     2
 1 06184 IR005 0.194 12:07   6.9     2
 1 06184 IR005 0.194 14:10   9.3     2
 1 06184 IR005 0.194 16:11   9.9     2
 1 06185 IR005 0.194 08:15  14.3     2
 1 06185 IR005 0.194 10:07   6.5     2
 1 06185 IR005 0.194 12:08   7.3     2
 1 06185 IR005 0.194 14:11   9.9     2
 1 06185 IR005 0.194 16:11  10.7     2
 1 06186 IR005 0.194 08:17  16.1     2
@I  EFIR  IDEP  ITHR  IEPT  IOFF  IAME  IAMT IRNAME
 2   -99   -99   -99   -99   -99   -99   -99 drip:08:00--Irrigation2
@I  IRLN IRSPC IROFS IRDEP
 2     1    20     0     1
 2     2    20     0     1
@I IDATE  IROP IRVAL IRSTR IRDUR  IRLN
 2 06100 IR005 0.194 08:00    24     2
 2 06107 IR005 0.194 08:00    24     2
 2 06114 IR005 0.194 08:00    24     2
 2 06114 IR005 0.194 08:47  23.9     1
 2 06114 IR005 0.194 10:43  20.2     1
 2 06114 IR005 0.194 12:07  56.7     1
 2 06115 IR005 0.194 10:47  23.2     1
 2 06115 IR005 0.194 12:46  21.7     1
 2 06115 IR005 0.194 16:31   7.1     1
 2 06116 IR005 0.194 08:47  23.2     1
 2 06121 IR005 0.194 08:00    24     2
 2 06121 IR005 0.194 08:48  23.6     1
 2 06121 IR005 0.194 12:47   7.5     1
 2 06121 IR005 0.194 14:47  23.6     1
 2 06122 IR005 0.194 10:34   5.6     1
 2 06123 IR005 0.194 08:48  23.5     1
 2 06123 IR005 0.194 10:41  17.6     1
 2 06123 IR005 0.194 14:36  11.7     1
 2 06124 IR005 0.194 08:41  17.2     1
 2 06125 IR005 0.194 08:41  17.2     1
 2 06126 IR005 0.194 08:41  17.2     1
 2 06127 IR005 0.194 08:47  23.2     1
 2 06128 IR005 0.194 08:00    24     2
 2 06129 IR005 0.194 08:47  23.2     1
 2 06129 IR005 0.194 10:42  18.7     1
 2 06130 IR005 0.194 14:46  22.1     1
 2 06131 IR005 0.194 08:47  23.1     1
 2 06131 IR005 0.194 10:38  13.9     1
 2 06134 IR005 0.194 08:48  23.7     1
 2 06134 IR005 0.194 10:48  23.7     1
 2 06135 IR005 0.194 08:00    24     2
 2 06135 IR005 0.194 08:47  22.2     1
 2 06135 IR005 0.194 10:48  23.8     1
 2 06136 IR005 0.194 08:47  23.1     1
 2 06136 IR005 0.194 10:47  23.7     1
 2 06137 IR005 0.194 08:47  22.9     1
 2 06137 IR005 0.194 10:38  14.2     1
 2 06137 IR005 0.194 14:41  17.6     1
 2 06138 IR005 0.194 14:47  23.6     1
 2 06138 IR005 0.194 16:37    13     1
 2 06139 IR005 0.194 08:42  17.8     1
 2 06139 IR005 0.194 10:30   6.2     1
 2 06139 IR005 0.194 12:32   8.5     1
 2 06139 IR005 0.194 14:35  11.5     1
 2 06139 IR005 0.194 16:35  11.5     1
 2 06140 IR005 0.194 08:45  21.5     1
 2 06140 IR005 0.194 10:31   6.9     1
 2 06140 IR005 0.194 12:35  11.1     1
 2 06140 IR005 0.194 14:38  14.2     1
 2 06140 IR005 0.194 16:39  15.1     1
 2 06141 IR005 0.194 08:46  21.9     1
 2 06141 IR005 0.194 10:33   9.1     1
 2 06141 IR005 0.194 12:34  10.6     1
 2 06141 IR005 0.194 14:38  13.8     1
 2 06141 IR005 0.194 16:38  14.4     1
 2 06142 IR005 0.194 08:00    24     2
 2 06142 IR005 0.194 08:46  22.2     1
 2 06142 IR005 0.194 10:28   4.3     1
 2 06142 IR005 0.194 12:33   9.8     1
 2 06142 IR005 0.194 14:38  14.8     1
 2 06142 IR005 0.194 16:36  12.8     1
 2 06143 IR005 0.194 08:41    17     1
 2 06143 IR005 0.194 10:28   4.9     1
 2 06143 IR005 0.194 12:34  10.3     1
 2 06143 IR005 0.194 15:17  37.3     1
 2 06143 IR005 0.194 15:32   5.7     1
 2 06144 IR005 0.194 08:39  15.5     1
 2 06144 IR005 0.194 10:36  12.6     1
 2 06144 IR005 0.194 12:36    12     1
 2 06144 IR005 0.194 14:39  15.6     1
 2 06144 IR005 0.194 16:43  19.3     1
 2 06145 IR005 0.194 08:44  20.7     1
 2 06145 IR005 0.194 10:33   9.3     1
 2 06145 IR005 0.194 12:37  13.1     1
 2 06145 IR005 0.194 14:42  18.4     1
 2 06145 IR005 0.194 16:39  14.9     1
 2 06146 IR005 0.194 08:47  23.7     1
 2 06146 IR005 0.194 10:36  12.2     1
 2 06146 IR005 0.194 12:38  14.8     1
 2 06146 IR005 0.194 14:41  17.5     1
 2 06146 IR005 0.194 16:33   9.2     1
 2 06147 IR005 0.194 08:47    23     1
 2 06147 IR005 0.194 10:36  12.7     1
 2 06147 IR005 0.194 12:41  17.6     1
 2 06147 IR005 0.194 14:40  16.1     1
 2 06147 IR005 0.194 16:42  18.3     1
 2 06148 IR005 0.194 08:47    23     1
 2 06148 IR005 0.194 10:42  18.2     1
 2 06148 IR005 0.194 12:45  21.3     1
 2 06148 IR005 0.194 14:46  22.6     1
 2 06148 IR005 0.194 16:45  20.6     1
 2 06149 IR005 0.194 08:00    24     2
 2 06149 IR005 0.194 08:32     8     1
 2 06149 IR005 0.194 10:27   3.3     1
 2 06149 IR005 0.194 12:41  17.5     1
 2 06149 IR005 0.194 14:45  21.8     1
 2 06149 IR005 0.194 16:42  18.8     1
 2 06150 IR005 0.194 08:44  20.2     1
 2 06150 IR005 0.194 10:31   7.4     1
 2 06150 IR005 0.194 12:39  15.6     1
 2 06150 IR005 0.194 14:37  13.2     1
 2 06150 IR005 0.194 16:34  10.2     1
 2 06151 IR005 0.194 08:32   8.8     1
 2 06151 IR005 0.194 10:30   6.1     1
 2 06151 IR005 0.194 10:45   5.3     1
 2 06151 IR005 0.194 12:47  23.1     1
 2 06151 IR005 0.194 14:45    22     1
 2 06151 IR005 0.194 16:45  21.9     1
 2 06152 IR005 0.194 08:47  23.2     1
 2 06152 IR005 0.194 10:40  16.1     1
 2 06152 IR005 0.194 12:35    11     1
 2 06152 IR005 0.194 14:27   3.6     1
 2 06153 IR005 0.194 08:45  21.9     1
 2 06153 IR005 0.194 10:35  11.9     1
 2 06153 IR005 0.194 12:42  18.5     1
 2 06153 IR005 0.194 14:34  10.2     1
 2 06153 IR005 0.194 16:30   6.6     1
 2 06154 IR005 0.194 08:38  14.6     1
 2 06154 IR005 0.194 10:33   9.8     1
 2 06154 IR005 0.194 12:26   2.3     1
 2 06155 IR005 0.194 08:29   5.1     1
 2 06155 IR005 0.194 10:28   4.6     1
 2 06155 IR005 0.194 12:35  11.1     1
 2 06155 IR005 0.194 14:38  13.9     1
 2 06155 IR005 0.194 16:41  16.9     1
 2 06156 IR005 0.194 08:00    24     2
 2 06156 IR005 0.194 08:39    15     1
 2 06156 IR005 0.194 10:35    12     1
 2 06156 IR005 0.194 12:46    22     1
 2 06156 IR005 0.194 14:46  22.9     1
 2 06156 IR005 0.194 16:42  18.2     1
 2 06157 IR005 0.194 08:46  22.6     1
 2 06157 IR005 0.194 10:37    13     1
 2 06157 IR005 0.194 12:34  10.8     1
 2 06157 IR005 0.194 14:29   5.4     1
 2 06157 IR005 0.194 16:29   5.7     1
 2 06158 IR005 0.194 08:47  23.6     1
 2 06158 IR005 0.194 10:40  16.5     1
 2 06158 IR005 0.194 12:36  12.1     1
 2 06158 IR005 0.194 14:38  14.9     1
 2 06158 IR005 0.194 16:43    19     1
 2 06159 IR005 0.194 08:47  23.2     1
 2 06159 IR005 0.194 10:52  28.8     1
 2 06159 IR005 0.194 12:26   2.6     1
 2 06159 IR005 0.194 14:45  20.9     1
 2 06159 IR005 0.194 16:46  21.9     1
 2 06160 IR005 0.194 08:47  22.9     1
 2 06160 IR005 0.194 10:45  21.9     1
 2 06160 IR005 0.194 12:46  22.7     1
 2 06160 IR005 0.194 14:46  21.9     1
 2 06160 IR005 0.194 16:47  23.1     1
 2 06161 IR005 0.194 08:47  22.8     1
 2 06161 IR005 0.194 10:47  23.3     1
 2 06161 IR005 0.194 12:46  22.3     1
 2 06161 IR005 0.194 14:47    23     1
 2 06161 IR005 0.194 16:47  23.3     1
 2 06162 IR005 0.194 08:47    23     1
 2 06162 IR005 0.194 10:46    22     1
 2 06162 IR005 0.194 12:46  21.6     1
 2 06162 IR005 0.194 14:47  23.3     1
 2 06162 IR005 0.194 16:34  10.2     1
 2 06163 IR005 0.194 08:00    24     2
 2 06163 IR005 0.194 08:34  10.2     1
 2 06163 IR005 0.194 10:26   2.4     1
 2 06163 IR005 0.194 12:26   2.3     1
 2 06165 IR005 0.194 14:48  23.8     1
 2 06165 IR005 0.194 16:30   4.9     1
 2 06166 IR005 0.194 08:48  23.1     1
 2 06166 IR005 0.194 10:37  12.1     1
 2 06166 IR005 0.194 12:36  11.2     1
 2 06166 IR005 0.194 14:35  10.3     1
 2 06166 IR005 0.194 16:39  14.9     1
 2 06167 IR005 0.194 08:48  23.4     1
 2 06167 IR005 0.194 10:37  12.5     1
 2 06167 IR005 0.194 12:46  21.5     1
 2 06167 IR005 0.194 14:48  22.7     1
 2 06167 IR005 0.194 16:46  21.5     1
 2 06168 IR005 0.194 08:48  23.1     1
 2 06168 IR005 0.194 10:44  19.8     1
 2 06168 IR005 0.194 12:49  23.7     1
 2 06168 IR005 0.194 14:47  22.4     1
 2 06168 IR005 0.194 16:47  22.2     1
 2 06169 IR005 0.194 08:48  23.4     1
 2 06169 IR005 0.194 10:45  20.5     1
 2 06169 IR005 0.194 12:47    22     1
 2 06169 IR005 0.194 14:44  18.5     1
 2 06169 IR005 0.194 16:35  10.6     1
 2 06170 IR005 0.194 08:00    24     2
 2 06170 IR005 0.194 08:43  18.2     1
 2 06170 IR005 0.194 10:31   6.3     1
 2 06170 IR005 0.194 12:42  16.6     1
 2 06170 IR005 0.194 14:48  23.4     1
 2 06170 IR005 0.194 16:36  11.5     1
 2 06171 IR005 0.194 08:31   6.6     1
 2 06171 IR005 0.194 10:34   8.9     1
 2 06171 IR005 0.194 12:41  16.7     1
 2 06171 IR005 0.194 14:28   3.1     1
 2 06171 IR005 0.194 16:27   2.5     1
 2 06172 IR005 0.194 08:30   4.9     1
 2 06172 IR005 0.194 10:28   3.2     1
 2 06172 IR005 0.194 12:34     9     1
 2 06172 IR005 0.194 14:37  12.1     1
 2 06172 IR005 0.194 16:35  10.3     1
 2 06173 IR005 0.194 08:36  11.7     1
 2 06173 IR005 0.194 10:31   5.8     1
 2 06173 IR005 0.194 12:33   8.3     1
 2 06173 IR005 0.194 14:36  11.7     1
 2 06173 IR005 0.194 16:35    10     1
 2 06174 IR005 0.194 08:45  20.5     1
 2 06174 IR005 0.194 10:35  10.1     1
 2 06174 IR005 0.194 12:40    15     1
 2 06174 IR005 0.194 14:42  17.3     1
 2 06174 IR005 0.194 16:42  17.6     1
 2 06175 IR005 0.194 08:45  20.2     1
 2 06175 IR005 0.194 10:41  15.9     1
 2 06175 IR005 0.194 12:40  14.9     1
 2 06175 IR005 0.194 14:36  11.3     1
 2 06175 IR005 0.194 16:34   9.1     1
 2 06176 IR005 0.194 08:48  23.2     1
 2 06176 IR005 0.194 10:36  11.4     1
 2 06176 IR005 0.194 12:34   9.5     1
 2 06177 IR005 0.194 08:00    24     2
 2 06177 IR005 0.194 14:48   5.6     1
 2 06178 IR005 0.194 08:28     2     1
 2 06178 IR005 0.194 10:40   2.1     1
 2 06179 IR005 0.194 08:32   7.6     1
 2 06179 IR005 0.194 10:28   2.7     1
 2 06179 IR005 0.194 12:30   5.3     1
 2 06180 IR005 0.194 10:48     4     1
 2 06180 IR005 0.194 12:48  23.6     1
 2 06180 IR005 0.194 14:36  11.1     1
 2 06180 IR005 0.194 16:35  10.2     1
 2 06181 IR005 0.194 08:38  12.7     1
 2 06181 IR005 0.194 10:29   3.7     1
 2 06181 IR005 0.194 12:36  10.7     1
 2 06181 IR005 0.194 14:38  13.2     1
 2 06181 IR005 0.194 14:49     5     1
 2 06181 IR005 0.194 16:44  19.2     1
 2 06182 IR005 0.194 08:45  20.2     1
 2 06182 IR005 0.194 10:35  10.1     1
 2 06182 IR005 0.194 12:43    18     1
 2 06182 IR005 0.194 14:48  23.8     1
 2 06182 IR005 0.194 16:42  17.2     1
 2 06183 IR005 0.194 08:48  23.1     1
 2 06183 IR005 0.194 10:34   9.2     1
 2 06183 IR005 0.194 12:31   5.9     1
 2 06183 IR005 0.194 14:49  23.7     1
 2 06183 IR005 0.194 16:43  18.1     1
 2 06184 IR005 0.194 08:00    24     2
 2 06184 IR005 0.194 08:39    14     1
 2 06184 IR005 0.194 10:33   8.1     1
 2 06184 IR005 0.194 12:42  17.4     1
 2 06184 IR005 0.194 14:45  20.4     1
 2 06184 IR005 0.194 16:41  16.4     1
 2 06185 IR005 0.194 08:44  18.7     1
 2 06185 IR005 0.194 10:34   9.1     1
 2 06185 IR005 0.194 12:33   8.1     1
 2 06185 IR005 0.194 14:40    15     1
 2 06185 IR005 0.194 16:38  13.8     1
 2 06186 IR005 0.194 08:43  17.8     1
 2 06186 IR005 0.194 10:36  11.1     1
 2 06186 IR005 0.194 12:34   9.5     1
 2 06186 IR005 0.194 14:34   9.1     1
@I  EFIR  IDEP  ITHR  IEPT  IOFF  IAME  IAMT IRNAME
 3   -99   -99   -99   -99   -99   -99   -99 drip:07:30--Irrigation3
@I  IRLN IRSPC IROFS IRDEP
 3     1    20     0     1
@I IDATE  IROP IRVAL IRSTR IRDUR  IRLN
 3 06100 IR005 0.194 07:30    24     1
 3 06107 IR005 0.194 07:30    24     1
 3 06114 IR005 0.194 07:30    24     1
 3 06115 IR005 0.361 08:00   120     1
 3 06116 IR005 0.361 08:00   120     1
 3 06117 IR005 0.361 08:00   120     1
 3 06118 IR005 0.361 08:00   120     1
 3 06119 IR005 0.361 08:00   120     1
 3 06120 IR005 0.361 08:00   120     1
 3 06121 IR005 0.194 07:30    24     1
 3 06121 IR005 0.361 08:00   120     1
 3 06122 IR005 0.361 08:00   120     1
 3 06123 IR005 0.361 08:00   120     1
 3 06124 IR005 0.361 08:00   120     1
 3 06125 IR005 0.361 08:00   120     1
 3 06126 IR005 0.361 08:00   120     1
 3 06127 IR005 0.361 08:00   120     1
 3 06128 IR005 0.194 07:30    24     1
 3 06128 IR005 0.361 08:00   120     1
 3 06129 IR005 0.361 08:00   120     1
 3 06130 IR005 0.361 08:00   120     1
 3 06131 IR005 0.361 08:00   120     1
 3 06132 IR005 0.361 08:00   120     1
 3 06133 IR005 0.361 08:00   120     1
 3 06134 IR005 0.361 08:00   120     1
 3 06135 IR005 0.194 07:30    24     1
 3 06135 IR005 0.361 08:00   120     1
 3 06136 IR005 0.361 08:00   120     1
 3 06137 IR005 0.361 08:00   120     1
 3 06138 IR005 0.361 08:00   120     1
 3 06139 IR005 0.361 08:00   120     1
 3 06140 IR005 0.361 08:00   120     1
 3 06141 IR005 0.361 08:00   120     1
 3 06142 IR005 0.194 07:30    24     1
 3 06142 IR005 0.361 08:00   120     1
 3 06143 IR005 0.361 08:00   120     1
 3 06144 IR005 0.278 08:00   120     1
 3 06145 IR005 0.278 08:00   120     1
 3 06146 IR005 0.278 08:00   120     1
 3 06147 IR005 0.278 08:00   120     1
 3 06148 IR005 0.278 08:00   120     1
 3 06149 IR005 0.194 07:30    24     1
 3 06149 IR005 0.278 08:00   120     1
 3 06150 IR005 0.278 08:00   120     1
 3 06151 IR005 0.222 08:00   120     1
 3 06152 IR005 0.222 08:00   120     1
 3 06153 IR005 0.222 08:00   120     1
 3 06154 IR005 0.222 08:00   120     1
 3 06155 IR005 0.222 08:00   120     1
 3 06156 IR005 0.194 07:30    24     1
 3 06156 IR005 0.222 08:00   120     1
 3 06157 IR005 0.222 08:00   120     1
 3 06158 IR005 0.222 08:00   120     1
 3 06159 IR005 0.222 08:00   120     1
 3 06160 IR005 0.222 08:00   120     1
 3 06161 IR005 0.222 08:00   120     1
 3 06162 IR005 0.222 08:00   120     1
 3 06163 IR005 0.194 07:30    24     1
 3 06163 IR005 0.222 08:00   120     1
 3 06166 IR005 0.222 08:00   120     1
 3 06167 IR005 0.222 08:00   120     1
 3 06168 IR005 0.222 08:00   120     1
 3 06169 IR005 0.222 08:00   120     1
 3 06170 IR005 0.194 07:30    24     1
 3 06170 IR005 0.222 08:00   120     1
 3 06171 IR005 0.222 08:00   120     1
 3 06172 IR005 0.222 08:00   120     1
 3 06173 IR005 0.222 08:00   120     1
 3 06174 IR005 0.222 08:00   120     1
 3 06175 IR005 0.222 08:00   120     1
 3 06176 IR005 0.222 08:00   120     1
 3 06177 IR005 0.194 07:30    24     1
 3 06177 IR005 0.222 08:00   120     1
 3 06178 IR005 0.222 08:00   120     1
 3 06179 IR005 0.222 08:00   120     1
 3 06181 IR005 0.222 08:00   120     1
 3 06182 IR005 0.222 08:00   120     1
 3 06183 IR005 0.222 08:00   120     1
 3 06184 IR005 0.194 07:30    24     1
 3 06184 IR005 0.222 08:00   120     1
 3 06185 IR005 0.222 08:00   120     1
 3 06186 IR005 0.222 08:00   120     1

*FERTILIZERS (INORGANIC)
@F FDATE  FMCD  FACD  FDEP  FAMN  FAMP  FAMK  FAMC  FAMO  FOCD FERNAME
 1 06100 FE008 AP005     1  9.68     0     0     0     0   -99 fertilizer1--fertilizer1
 1 06107 FE008 AP005     1  9.68     0     0     0     0   -99 fertilizer1--fertilizer1
 1 06114 FE008 AP005     1 12.50     0     0     0     0   -99 fertilizer1--fertilizer1