*EXP.DETAILS: UFHA1101PT 

! APPLIED DOME INFO
! Sep_Atl Field    	UFHA-1-----2011_FERT|UFHA-1-----2011_SEPIRR|UFHA-1-----ALL
! Sep_Fab Field    	UFHA-1-----2011_FERT|UFHA-1-----2011_SEPIRR|UFHA-1-----ALL
! Sep_Red Field    	UFHA-1-----2011_FERT|UFHA-1-----2011_SEPIRR|UFHA-1-----ALL
! Sub_Atl Field    	UFHA-1-----2011_SUBIRR|UFHA-1-----2011_FERT|UFHA-1-----ALL
! Sub_Fab Field    	UFHA-1-----2011_SUBIRR|UFHA-1-----2011_FERT|UFHA-1-----ALL
! Sub_Red Field    	UFHA-1-----2011_SUBIRR|UFHA-1-----2011_FERT|UFHA-1-----ALL
! Sur_Atl Field    	UFHA-1-----2011_FERT|UFHA-1-----ALL|UFHA-1-----2011_SURIRR
! Sur_Fab Field    	UFHA-1-----2011_FERT|UFHA-1-----ALL|UFHA-1-----2011_SURIRR
! Sur_Red Field    	UFHA-1-----2011_FERT|UFHA-1-----ALL|UFHA-1-----2011_SURIRR

*GENERAL
@ADDRESS
 University of florida
@SITE
 Hastings
@NOTES
 Cultivar Additional Info
 C   RM CNAME            CUL_NOTES
 1  -99 Mid-late maturity
 Cultivar Additional Info
 C   RM CNAME            CUL_NOTES
 2  -99 Mid-late maturity
 Cultivar Additional Info
 C   RM CNAME            CUL_NOTES
 3  -99 Mid-late maturity

*TREATMENTS                        -------------FACTOR LEVELS------------
@N R O C TNAME.................... CU FL SA IC MP MI MF MR MC MT ME MH SM
 1 1 1 0 Sep_Atl                    1  1  0  1  1  1  1  0  0  0  0  1  1
! 2 1 1 0 Sep_Fab                    2  1  0  1  1  1  1  0  0  0  0  1  1
 3 1 1 0 Sep_Red                    3  1  0  1  1  1  1  0  0  0  0  1  1
 4 1 1 0 Sub_Atl                    1  1  0  2  1  2  1  0  0  0  0  1  1
! 5 1 1 0 Sub_Fab                    2  1  0  2  1  2  1  0  0  0  0  1  1
 6 1 1 0 Sub_Red                    3  1  0  2  1  2  1  0  0  0  0  1  1
 7 1 1 0 Sur_Atl                    1  1  0  3  1  3  1  0  0  0  0  1  1
! 8 1 1 0 Sur_Fab                    2  1  0  3  1  3  1  0  0  0  0  1  1
 9 1 1 0 Sur_Red                    3  1  0  3  1  3  1  0  0  0  0  1  1

*CULTIVARS
@C CR INGENO CNAME
 1 PT IB0005 -99
 2 PT UF0002 -99
 3 PT UF0001 -99

*FIELDS
@L ID_FIELD WSTA....  FLSA  FLOB  FLDT  FLDD  FLDS  FLST SLTX  SLDP  ID_SOIL     BDWD  BDHT PMALB FLNAME
 1 UFHA1101 UFHA1102   -99   -99 -99     -99   -99 -99   S      -99  UFHA000001    80    30  0.03 -99
@L ...........XCRD ...........YCRD .....ELEV .............AREA .SLEN .FLWR .SLAS FLHST FHDUR
 1    -81.44204722           29.69       -99               -99   -99   -99   -99   -99   -99

*INITIAL CONDITIONS
@C   PCR ICDAT  ICRT  ICND  ICRN  ICRE  ICWD ICRES ICREN ICREP ICRIP ICRID ICNAME
 1   -99 11001   -99   -99   -99   -99   -99   -99   -99   -99   -99   -99 -99
@C  ICBL  SH2O  SNH4  SNO3
 1    20   -99  1.24  0.36
 1    20   -99   -99   -99
@C   PCR ICDAT  ICRT  ICND  ICRN  ICRE  ICWD ICRES ICREN ICREP ICRIP ICRID ICNAME
 2   -99 11001   -99   -99   -99   -99   -99   -99   -99   -99   -99   -99 -99
@C  ICBL  SH2O  SNH4  SNO3
 2    20   -99  1.55  0.67
 2    20   -99   -99   -99
@C   PCR ICDAT  ICRT  ICND  ICRN  ICRE  ICWD ICRES ICREN ICREP ICRIP ICRID ICNAME
 3   -99 11001   -99   -99   -99   -99   -99   -99   -99   -99   -99   -99 -99
@C  ICBL  SH2O  SNH4  SNO3
 3    20   -99  1.55  0.67
 3    20   -99   -99   -99

*PLANTING DETAILS
@P PDATE EDATE  PPOP  PPOE  PLME  PLDS  PLRS  PLRD  PLDP  PLWT  PAGE  PENV  PLPH  SPRL                        PLNAME
 1 11048   -99     6     6     S   -99   100    90    15   444   -99   -99   -99     2                        -99

*IRRIGATION AND WATER MANAGEMENT
@I  EFIR  IDEP  ITHR  IEPT  IOFF  IAME  IAMT IRTLN IRNAME
 1   -99   -99   -99   -99   -99   -99   -99     1 -99
@I  IRLN IRSPC IROFS IRDEP
 1     1    20     0    15
@I IDATE  IROP IRVAL IRSTR IRDUR IRINT IRNUM  IRLN
 1 11048 IR007    16   -99   -99   -99   -99   -99
 1 11083 IR005 0.278  9:00  11.6     0     1     1
 1 11083 IR005 0.278 11:00  11.6     0     1     1
 1 11083 IR005 0.278 14:00  11.6     0     1     1
 1 11104 IR005 0.278  7:00  15.3     0     1     1
 1 11104 IR005 0.278  9:00  15.3     0     1     1
 1 11104 IR005 0.278 11:00  15.3     0     1     1
 1 11104 IR005 0.278 14:00  15.3     0     1     1
@I  EFIR  IDEP  ITHR  IEPT  IOFF  IAME  IAMT IRTLN IRNAME
 2   -99   -99   -99   -99   -99   -99   -99     1 -99
@I  IRLN IRSPC IROFS IRDEP
 2     1    20     0    15
@I IDATE  IROP IRVAL IRSTR IRDUR IRINT IRNUM  IRLN
 2 11083 IR005 0.278  9:00  11.6     0     1     1
 2 11083 IR005 0.278 11:00  11.6     0     1     1
 2 11083 IR005 0.278 14:00  11.6     0     1     1
 2 11104 IR005 0.278  7:00  15.3     0     1     1
 2 11104 IR005 0.278  9:00  15.3     0     1     1
 2 11104 IR005 0.278 11:00  15.3     0     1     1
 2 11104 IR005 0.278 14:00  15.3     0     1     1
@I  EFIR  IDEP  ITHR  IEPT  IOFF  IAME  IAMT IRTLN IRNAME
 3   -99   -99   -99   -99   -99   -99   -99     1 -99
@I  IRLN IRSPC IROFS IRDEP
 3     1    20     0     5
@I IDATE  IROP IRVAL IRSTR IRDUR IRINT IRNUM  IRLN
 3 11083 IR005 0.278  9:00  11.6     0     1     1
 3 11083 IR005 0.278 11:00  11.6     0     1     1
 3 11083 IR005 0.278 14:00  11.6     0     1     1
 3 11104 IR005 0.278  7:00  15.3     0     1     1
 3 11104 IR005 0.278  9:00  15.3     0     1     1
 3 11104 IR005 0.278 11:00  15.3     0     1     1
 3 11104 IR005 0.278 14:00  15.3     0     1     1

*FERTILIZERS (INORGANIC)
@F FDATE  FMCD  FACD  FDEP  FAMN  FAMP  FAMK  FAMC  FAMO  FOCD FERNAME
 1 11061 FE001 AP003    10    56   -99   -99   -99   -99   -99 -99
 1 11061 FE013 AP003    10   100   -99   -99   -99   -99   -99 -99
 1 11061 FE016 AP003    10   150   -99   -99   -99   -99   -99 -99
 1 11081 FE001 AP003    10    84   -99   -99   -99   -99   -99 -99
 1 11081 FE016 AP003    10   125   -99   -99   -99   -99   -99 -99
 1 11094 FE001 AP003    10    84   -99   -99   -99   -99   -99 -99

*HARVEST DETAILS
@H HDATE  HSTG  HCOM HSIZE   HPC  HBPC HNAME
 1 11157 -99   -99   -99     -99   -99 -99

*SIMULATION CONTROLS
@N GENERAL     NYERS NREPS START SDATE RSEED SNAME.................... SMODEL
 1 GE              1     1     S 11001  2150 DEFAULT SIMULATION CONTRL 
@N OPTIONS     WATER NITRO SYMBI PHOSP POTAS DISES  CHEM  TILL   CO2
 1 OP              Y     Y     Y     N     N     N     N     N     M
@N METHODS     WTHER INCON LIGHT EVAPO INFIL PHOTO HYDRO NSWIT MESOM MESEV MESOL
 1 ME              M     M     E     R     N     C     G     1     G     S     2
@N MANAGEMENT  PLANT IRRIG FERTI RESID HARVS
 1 MA              R     R     R     R     R
@N OUTPUTS     FNAME OVVEW SUMRY FROPT GROUT CAOUT WAOUT NIOUT MIOUT DIOUT VBOSE CHOUT OPOUT
 1 OU              N     Y     Y     1     Y     Y     Y     Y     N     N     D     N     N

@  AUTOMATIC MANAGEMENT
@N PLANTING    PFRST PLAST PH2OL PH2OU PH2OD PSTMX PSTMN
 1 PL          82050 82064    40   100    30    40    10
@N IRRIGATION  IMDEP ITHRL ITHRU IROFF IMETH IRAMT IREFF
 1 IR             30    50   100 GS000 IR001    10  1.00
@N NITROGEN    NMDEP NMTHR NAMNT NCODE NAOFF
 1 NI             30    50    25 FE001 GS000
@N RESIDUES    RIPCN RTIME RIDEP
 1 RE            100     1    20
@N HARVEST     HFRST HLAST HPCNP HPCNR
 1 HA              0 83057   100     0

